<?xml version="1.0" encoding="UTF-8"?>

<!-- generated on 03/26/13 09:11:14 by SUMO netconvert Version dev-SVN-rUNKNOWN
<?xml version="1.0" encoding="UTF-8"?>

<configuration xmlns:xsi="http://www.w3.org/2001/XMLSchema-instance" xsi:noNamespaceSchemaLocation="http://sumo.sf.net/xsd/netconvertConfiguration.xsd">

    <input>
        <opendrive-files value="opendrive.xodr"/>
    </input>

    <output>
        <output-file value="net.net.xml"/>
    </output>

    <processing>
        <no-internal-links value="true"/>
    </processing>

    <report>
        <verbose value="true"/>
    </report>

</configuration>
-->

<net version="0.13" xmlns:xsi="http://www.w3.org/2001/XMLSchema-instance" xsi:noNamespaceSchemaLocation="http://sumo.sf.net/xsd/net_file.xsd">

    <location netOffset="200.00,86.66" convBoundary="0.00,0.00,400.00,173.31" origBoundary="-200.00,-86.66,200.00,86.66" projParameter="!"/>

    <edge id="-101" from="45" to="44" priority="1" shape="185.01,102.20 180.42,90.73 184.45,71.66">
        <lane id="-101_0" index="0" speed="13.90" length="26.10" width="3.65" shape="177.31,98.10 174.56,91.24 178.67,71.82"/>
        <lane id="-101_1" index="1" speed="13.90" length="26.10" width="3.65" shape="180.79,96.71 178.47,90.90 182.34,72.60"/>
    </edge>
    <edge id="-108" from="44" to="43" priority="1" shape="184.45,71.66 195.92,67.08 214.99,71.11">
        <lane id="-108_0" index="0" speed="13.90" length="26.10" width="3.65" shape="188.55,63.96 195.42,61.22 214.83,65.32"/>
        <lane id="-108_1" index="1" speed="13.90" length="26.10" width="3.65" shape="189.95,67.45 195.75,65.12 214.06,68.99"/>
    </edge>
    <edge id="-113" from="43" to="46" priority="1" shape="214.99,71.11 219.58,82.58 215.55,101.65">
        <lane id="-113_0" index="0" speed="13.90" length="26.10" width="3.65" shape="222.69,75.21 225.44,82.07 221.33,101.49"/>
        <lane id="-113_1" index="1" speed="13.90" length="26.10" width="3.65" shape="219.21,76.60 221.53,82.41 217.66,100.71"/>
    </edge>
    <edge id="-114.0.00" from="46" to="114.6.00" priority="1" shape="226.11,112.77 230.35,117.01">
        <lane id="-114.0.00_0" index="0" speed="13.90" length="13.22" width="3.65" shape="222.33,106.34 231.68,115.69"/>
    </edge>
    <edge id="-114.37.00" from="114.37.00" to="115.114" priority="1" shape="252.27,138.92 259.34,146.00 260.05,146.70 260.76,147.41 261.47,148.11 262.18,148.82 262.89,149.52 263.61,150.21 264.34,150.90 265.07,151.59 265.80,152.26 266.54,152.94 267.48,153.76 275.42,159.83 284.05,164.86 293.25,168.78 302.86,171.52 312.74,173.03 322.73,173.31 332.67,172.34 342.42,170.13 351.82,166.73 360.72,162.18 368.98,156.56 376.48,149.95 383.09,142.46 388.72,134.21 393.28,125.31 396.69,115.92 398.90,106.17 399.74,98.98 399.80,97.98 399.85,96.98 399.90,95.98 399.93,94.98 399.95,93.98 399.97,92.98 399.99,91.98 399.99,90.98 400.00,89.98 400.00,88.98 400.00,87.73 400.00,86.66 400.00,85.58">
        <lane id="-114.37.00_0" index="0" speed="13.90" length="205.77" width="3.75" shape="254.69,138.62 260.70,144.64 261.41,145.34 262.12,146.05 262.82,146.75 263.53,147.45 264.24,148.14 264.95,148.83 265.67,149.51 266.38,150.18 267.11,150.85 267.83,151.51 268.75,152.32 276.59,158.30 285.02,163.20 294.00,167.01 303.39,169.66 313.03,171.13 322.78,171.39 332.49,170.42 342.00,168.26 351.16,164.92 359.84,160.47 367.90,154.97 375.20,148.51 381.65,141.19 387.13,133.12 391.56,124.43 394.88,115.26 397.02,105.75 397.82,98.76 397.88,97.86 397.93,96.88 397.97,95.90 398.01,94.92 398.03,93.94 398.05,92.95 398.06,91.96 398.07,90.97 398.07,89.98 398.07,88.98 398.08,87.73 398.08,86.66 398.08,85.58"/>
    </edge>
    <edge id="-114.6.00" from="114.6.00" to="114.37.00" priority="1" shape="230.35,117.01 252.27,138.92">
        <lane id="-114.6.00_0" index="0" speed="13.90" length="29.49" width="3.75" shape="231.72,115.65 252.57,136.50"/>
    </edge>
    <edge id="-115.0.00" from="43" to="115.6.00" priority="1" shape="226.12,60.54 230.36,56.30">
        <lane id="-115.0.00_0" index="0" speed="13.90" length="13.22" width="3.65" shape="219.68,64.32 229.03,54.97"/>
    </edge>
    <edge id="-115.37.00" from="115.37.00" to="115.114" priority="1" shape="252.27,34.39 259.34,27.31 260.05,26.61 260.76,25.90 261.47,25.20 262.18,24.49 262.89,23.79 263.61,23.10 264.34,22.41 265.07,21.72 265.80,21.05 266.54,20.37 267.48,19.55 275.42,13.48 284.05,8.45 293.25,4.53 302.86,1.79 312.74,0.28 322.73,0.00 332.67,0.97 342.42,3.18 351.82,6.58 360.72,11.13 368.98,16.75 376.48,23.36 383.09,30.85 388.72,39.10 393.28,48.00 396.69,57.39 398.90,67.14 399.74,74.33 399.80,75.33 399.85,76.33 399.90,77.33 399.93,78.33 399.95,79.33 399.97,80.33 399.99,81.33 399.99,82.33 400.00,83.33 400.00,84.33 400.00,85.58">
        <lane id="-115.37.00_0" index="0" speed="13.90" length="212.67" width="3.75" shape="251.96,31.97 257.98,25.95 258.69,25.24 259.40,24.54 260.11,23.83 260.83,23.12 261.55,22.42 262.27,21.71 263.01,21.02 263.75,20.32 264.49,19.63 265.25,18.95 266.21,18.10 274.25,11.95 283.09,6.79 292.49,2.76 302.33,-0.06 312.44,-1.63 322.67,-1.92 332.86,-0.94 342.84,1.30 352.47,4.77 361.59,9.41 370.06,15.16 377.75,21.91 384.53,29.57 390.31,38.02 394.99,47.12 398.50,56.73 400.78,66.71 401.65,74.11 401.72,75.21 401.78,76.23 401.82,77.24 401.85,78.26 401.88,79.28 401.90,80.29 401.91,81.30 401.92,82.31 401.92,83.32 401.92,84.32 401.93,85.58"/>
    </edge>
    <edge id="-115.6.00" from="115.6.00" to="115.37.00" priority="1" shape="230.36,56.30 252.27,34.39">
        <lane id="-115.6.00_0" index="0" speed="13.90" length="29.49" width="3.75" shape="228.99,54.94 249.84,34.09"/>
    </edge>
    <edge id="-116.0.00" from="45" to="116.6.00" priority="1" shape="173.89,112.77 169.65,117.01">
        <lane id="-116.0.00_0" index="0" speed="13.90" length="13.22" width="3.65" shape="180.32,108.99 170.97,118.33"/>
    </edge>
    <edge id="-116.37.00" from="116.37.00" to="117.116" priority="1" shape="147.74,138.92 140.66,146.00 139.95,146.70 139.24,147.41 138.53,148.11 137.82,148.82 137.11,149.52 136.39,150.21 135.66,150.90 134.93,151.59 134.20,152.26 133.46,152.94 132.52,153.76 124.58,159.83 115.95,164.86 106.75,168.78 97.14,171.52 87.26,173.03 77.27,173.31 67.33,172.34 57.58,170.13 48.18,166.73 39.28,162.18 31.02,156.56 23.52,149.95 16.91,142.46 11.28,134.21 6.72,125.31 3.31,115.92 1.10,106.17 0.26,98.98 0.20,97.98 0.15,96.98 0.10,95.98 0.07,94.98 0.05,93.98 0.03,92.98 0.01,91.98 0.01,90.98 0.00,89.98 0.00,88.98 0.00,87.73 0.00,86.66 0.00,85.58">
        <lane id="-116.37.00_0" index="0" speed="13.90" length="227.72" width="3.75" shape="148.04,141.34 142.02,147.36 141.31,148.07 140.60,148.77 139.89,149.48 139.17,150.19 138.45,150.89 137.73,151.60 136.99,152.29 136.25,152.99 135.51,153.68 134.75,154.36 133.79,155.21 125.75,161.36 116.91,166.52 107.51,170.55 97.67,173.37 87.56,174.94 77.33,175.23 67.14,174.25 57.16,172.01 47.53,168.54 38.41,163.90 29.94,158.15 22.25,151.40 15.47,143.74 9.69,135.29 5.01,126.19 1.50,116.58 -0.78,106.60 -1.65,99.20 -1.72,98.10 -1.78,97.08 -1.82,96.07 -1.85,95.05 -1.88,94.03 -1.90,93.02 -1.91,92.01 -1.92,91.00 -1.92,89.99 -1.92,88.99 -1.92,87.74 -1.92,86.66 -1.92,72.68"/>
    </edge>
    <edge id="-116.6.00" from="116.6.00" to="116.37.00" priority="1" shape="169.65,117.01 147.74,138.92">
        <lane id="-116.6.00_0" index="0" speed="13.90" length="29.49" width="3.75" shape="171.01,118.37 150.16,139.22"/>
    </edge>
    <edge id="-117.0.00" from="44" to="117.6.00" priority="1" shape="173.89,60.54 169.65,56.30">
        <lane id="-117.0.00_0" index="0" speed="13.90" length="13.22" width="3.65" shape="177.67,66.97 168.32,57.63"/>
    </edge>
    <edge id="-117.37.00" from="117.37.00" to="117.116" priority="1" shape="147.73,34.39 140.66,27.31 139.95,26.61 139.24,25.90 138.53,25.20 137.82,24.49 137.11,23.79 136.39,23.10 135.66,22.41 134.93,21.72 134.20,21.05 133.46,20.37 132.52,19.55 124.58,13.48 115.95,8.45 106.75,4.53 97.14,1.79 87.26,0.28 77.27,0.00 67.33,0.97 57.58,3.18 48.18,6.58 39.28,11.13 31.02,16.75 23.52,23.36 16.91,30.85 11.28,39.10 6.72,48.00 3.31,57.39 1.10,67.14 0.26,74.33 0.20,75.33 0.15,76.33 0.10,77.33 0.07,78.33 0.05,79.33 0.03,80.33 0.01,81.33 0.01,82.33 0.00,83.33 0.00,84.33 0.00,85.58">
        <lane id="-117.37.00_0" index="0" speed="13.90" length="190.71" width="3.75" shape="145.31,34.69 139.30,28.67 138.59,27.97 137.88,27.26 137.18,26.56 136.47,25.86 135.76,25.17 135.05,24.48 134.33,23.80 133.62,23.13 132.89,22.46 132.17,21.80 131.25,20.99 123.41,15.01 114.98,10.11 106.00,6.30 96.61,3.65 86.97,2.18 77.22,1.92 67.51,2.89 58.00,5.05 48.84,8.39 40.16,12.84 32.10,18.34 24.80,24.80 18.35,32.12 12.87,40.19 8.44,48.88 5.12,58.05 2.98,67.56 2.39,72.68"/>
    </edge>
    <edge id="-117.6.00" from="117.6.00" to="117.37.00" priority="1" shape="169.65,56.30 147.73,34.39">
        <lane id="-117.6.00_0" index="0" speed="13.90" length="29.49" width="3.75" shape="168.28,57.66 147.43,36.81"/>
    </edge>
    <edge id="-119" from="46" to="45" priority="1" shape="215.55,101.65 204.08,106.23 185.01,102.20">
        <lane id="-119_0" index="0" speed="13.90" length="26.10" width="3.65" shape="211.45,109.35 204.58,112.09 185.17,107.99"/>
        <lane id="-119_1" index="1" speed="13.90" length="26.10" width="3.65" shape="210.05,105.86 204.25,108.19 185.94,104.32"/>
    </edge>
    <edge id="114.0.00" from="114.6.00" to="46" priority="1" shape="230.35,117.01 226.11,112.77">
        <lane id="114.0.00_0" index="0" speed="13.90" length="13.22" width="1.50" shape="226.39,120.97 217.05,111.62"/>
        <lane id="114.0.00_1" index="1" speed="13.90" length="13.22" width="4.70" shape="228.66,118.71 219.31,109.36"/>
    </edge>
    <edge id="114.37.00" from="115.114" to="114.37.00" priority="1" shape="400.00,85.58 400.00,86.66 400.00,87.73 400.00,88.98 400.00,89.98 399.99,90.98 399.99,91.98 399.97,92.98 399.95,93.98 399.93,94.98 399.90,95.98 399.85,96.98 399.80,97.98 399.74,98.98 398.90,106.17 396.69,115.92 393.28,125.31 388.72,134.21 383.09,142.46 376.48,149.95 368.98,156.56 360.72,162.18 351.82,166.73 342.42,170.13 332.67,172.34 322.73,173.31 312.74,173.03 302.86,171.52 293.25,168.78 284.05,164.86 275.42,159.83 267.48,153.76 266.54,152.94 265.80,152.26 265.07,151.59 264.34,150.90 263.61,150.21 262.89,149.52 262.18,148.82 261.47,148.11 260.76,147.41 260.05,146.70 259.34,146.00 252.27,138.92">
        <lane id="114.37.00_0" index="0" speed="13.90" length="215.94" width="4.70" shape="402.40,85.58 402.40,86.66 402.40,87.73 402.40,88.99 402.40,89.99 402.39,90.99 402.39,92.00 402.37,93.01 402.35,94.03 402.33,95.05 402.29,96.06 402.25,97.08 402.20,98.11 402.13,99.13 401.28,106.45 399.03,116.45 395.53,126.13 390.86,135.30 385.07,143.82 378.27,151.54 370.56,158.36 362.07,164.17 352.91,168.87 343.24,172.39 333.20,174.68 322.96,175.70 312.67,175.43 302.49,173.89 292.59,171.09 283.11,167.07 274.21,161.90 266.02,155.67 264.95,154.74 264.19,154.04 263.44,153.35 262.69,152.65 261.96,151.95 261.23,151.24 260.50,150.53 259.78,149.82 259.07,149.11 258.35,148.40 257.65,147.69 251.63,141.68"/>
    </edge>
    <edge id="114.6.00" from="114.37.00" to="114.6.00" priority="1" shape="252.27,138.92 230.35,117.01">
        <lane id="114.6.00_0" index="0" speed="13.90" length="29.49" width="1.50" shape="247.24,141.82 226.39,120.97"/>
        <lane id="114.6.00_1" index="1" speed="13.90" length="29.49" width="4.70" shape="249.51,139.56 228.66,118.71"/>
    </edge>
    <edge id="115.0.00" from="115.6.00" to="43" priority="1" shape="230.36,56.30 226.12,60.54">
        <lane id="115.0.00_0" index="0" speed="13.90" length="13.22" width="1.50" shape="234.32,60.26 224.97,69.61"/>
        <lane id="115.0.00_1" index="1" speed="13.90" length="13.22" width="4.70" shape="232.05,58.00 222.71,67.34"/>
    </edge>
    <edge id="115.37.00" from="115.114" to="115.37.00" priority="1" shape="400.00,85.58 400.00,84.33 400.00,83.33 399.99,82.33 399.99,81.33 399.97,80.33 399.95,79.33 399.93,78.33 399.90,77.33 399.85,76.33 399.80,75.33 399.74,74.33 398.90,67.14 396.69,57.39 393.28,48.00 388.72,39.10 383.09,30.85 376.48,23.36 368.98,16.75 360.72,11.13 351.82,6.58 342.42,3.18 332.67,0.97 322.73,0.00 312.74,0.28 302.86,1.79 293.25,4.53 284.05,8.45 275.42,13.48 267.48,19.55 266.54,20.37 265.80,21.05 265.07,21.72 264.34,22.41 263.61,23.10 262.89,23.79 262.18,24.49 261.47,25.20 260.76,25.90 260.05,26.61 259.34,27.31 252.27,34.39">
        <lane id="115.37.00_0" index="0" speed="13.90" length="202.50" width="4.70" shape="397.60,85.58 397.60,84.33 397.60,83.33 397.59,82.34 397.59,81.34 397.57,80.36 397.56,79.37 397.53,78.39 397.50,77.41 397.46,76.43 397.40,75.46 397.34,74.48 396.52,67.41 394.35,57.92 391.02,48.82 386.58,40.20 381.11,32.20 374.68,24.94 367.39,18.55 359.37,13.11 350.72,8.72 341.60,5.43 332.14,3.31 322.49,2.39 312.80,2.67 303.22,4.17 293.91,6.84 284.99,10.66 276.63,15.55 268.94,21.46 268.13,22.18 267.41,22.83 266.69,23.49 265.98,24.16 265.27,24.84 264.56,25.52 263.86,26.21 263.15,26.90 262.45,27.60 261.74,28.31 261.04,29.01 255.02,35.03"/>
    </edge>
    <edge id="115.6.00" from="115.37.00" to="115.6.00" priority="1" shape="252.27,34.39 230.36,56.30">
        <lane id="115.6.00_0" index="0" speed="13.90" length="29.49" width="1.50" shape="255.16,39.41 234.32,60.26"/>
        <lane id="115.6.00_1" index="1" speed="13.90" length="29.49" width="4.70" shape="252.90,37.15 232.05,58.00"/>
    </edge>
    <edge id="116.0.00" from="116.6.00" to="45" priority="1" shape="169.65,117.01 173.89,112.77">
        <lane id="116.0.00_0" index="0" speed="13.90" length="13.22" width="1.50" shape="165.69,113.05 175.03,103.70"/>
        <lane id="116.0.00_1" index="1" speed="13.90" length="13.22" width="4.70" shape="167.95,115.31 177.29,105.97"/>
    </edge>
    <edge id="116.37.00" from="117.116" to="116.37.00" priority="1" shape="0.00,85.58 0.00,86.66 0.00,87.73 0.00,88.98 0.00,89.98 0.01,90.98 0.01,91.98 0.03,92.98 0.05,93.98 0.07,94.98 0.10,95.98 0.15,96.98 0.20,97.98 0.26,98.98 1.10,106.17 3.31,115.92 6.72,125.31 11.28,134.21 16.91,142.46 23.52,149.95 31.02,156.56 39.28,162.18 48.18,166.73 57.58,170.13 67.33,172.34 77.27,173.31 87.26,173.03 97.14,171.52 106.75,168.78 115.95,164.86 124.58,159.83 132.52,153.76 133.46,152.94 134.20,152.26 134.93,151.59 135.66,150.90 136.39,150.21 137.11,149.52 137.82,148.82 138.53,148.11 139.24,147.41 139.95,146.70 140.66,146.00 147.74,138.92">
        <lane id="116.37.00_0" index="0" speed="13.90" length="217.55" width="4.70" shape="2.40,72.69 2.40,86.66 2.40,87.73 2.40,88.98 2.40,89.98 2.41,90.97 2.41,91.97 2.43,92.95 2.44,93.94 2.47,94.92 2.50,95.90 2.54,96.88 2.60,97.85 2.66,98.83 3.48,105.90 5.65,115.39 8.98,124.49 13.42,133.11 18.89,141.11 25.32,148.37 32.61,154.76 40.63,160.20 49.28,164.59 58.40,167.88 67.86,170.00 77.51,170.92 87.20,170.64 96.78,169.14 106.09,166.47 115.01,162.65 123.37,157.76 131.06,151.85 131.87,151.13 132.59,150.48 133.31,149.82 134.02,149.15 134.73,148.47 135.44,147.79 136.14,147.10 136.85,146.41 137.55,145.71 138.26,145.00 138.96,144.30 144.98,138.28"/>
    </edge>
    <edge id="116.6.00" from="116.37.00" to="116.6.00" priority="1" shape="147.74,138.92 169.65,117.01">
        <lane id="116.6.00_0" index="0" speed="13.90" length="29.49" width="1.50" shape="144.84,133.90 165.69,113.05"/>
        <lane id="116.6.00_1" index="1" speed="13.90" length="29.49" width="4.70" shape="147.10,136.16 167.95,115.31"/>
    </edge>
    <edge id="117.0.00" from="117.6.00" to="44" priority="1" shape="169.65,56.30 173.89,60.54">
        <lane id="117.0.00_0" index="0" speed="13.90" length="13.22" width="1.50" shape="173.61,52.34 182.95,61.69"/>
        <lane id="117.0.00_1" index="1" speed="13.90" length="13.22" width="4.70" shape="171.34,54.60 180.69,63.95"/>
    </edge>
    <edge id="117.37.00" from="117.116" to="117.37.00" priority="1" shape="0.00,85.58 0.00,84.33 0.00,83.33 0.01,82.33 0.01,81.33 0.03,80.33 0.05,79.33 0.07,78.33 0.10,77.33 0.15,76.33 0.20,75.33 0.26,74.33 1.10,67.14 3.31,57.39 6.72,48.00 11.28,39.10 16.91,30.85 23.52,23.36 31.02,16.75 39.28,11.13 48.18,6.58 57.58,3.18 67.33,0.97 77.27,0.00 87.26,0.28 97.14,1.79 106.75,4.53 115.95,8.45 124.58,13.48 132.52,19.55 133.46,20.37 134.20,21.05 134.93,21.72 135.66,22.41 136.39,23.10 137.11,23.79 137.82,24.49 138.53,25.20 139.24,25.90 139.95,26.61 140.66,27.31 147.73,34.39">
        <lane id="117.37.00_0" index="0" speed="13.90" length="200.49" width="4.70" shape="-1.91,72.30 -1.28,66.86 0.97,56.86 4.47,47.18 9.14,38.01 14.93,29.49 21.73,21.77 29.44,14.95 37.93,9.14 47.09,4.44 56.76,0.92 66.80,-1.37 77.04,-2.39 87.33,-2.12 97.51,-0.58 107.41,2.23 116.89,6.24 125.79,11.41 133.98,17.64 135.05,18.57 135.81,19.27 136.56,19.96 137.31,20.66 138.04,21.36 138.77,22.07 139.50,22.78 140.22,23.49 140.93,24.20 141.65,24.91 142.35,25.62 148.37,31.63"/>
    </edge>
    <edge id="117.6.00" from="117.37.00" to="117.6.00" priority="1" shape="147.73,34.39 169.65,56.30">
        <lane id="117.6.00_0" index="0" speed="13.90" length="29.49" width="1.50" shape="152.76,31.49 173.61,52.34"/>
        <lane id="117.6.00_1" index="1" speed="13.90" length="29.49" width="4.70" shape="150.49,33.75 171.34,54.60"/>
    </edge>

    <junction id="114.37.00" type="priority" x="252.28" y="138.93" incLanes="114.37.00_0 -114.6.00_0" intLanes="" shape="250.50,142.81 255.82,137.49 253.70,135.37 246.11,142.95">
        <request index="0" response="00" foes="00"/>
        <request index="1" response="00" foes="00"/>
    </junction>
    <junction id="114.6.00" type="priority" x="230.36" y="117.01" incLanes="114.6.00_0 114.6.00_1 -114.0.00_0" intLanes="" shape="225.26,122.10 232.85,114.52 225.26,122.10">
        <request index="0" response="000" foes="000"/>
        <request index="1" response="000" foes="000"/>
        <request index="2" response="000" foes="000"/>
    </junction>
    <junction id="115.114" type="priority" x="400.00" y="85.58" incLanes="-114.37.00_0 -115.37.00_0" intLanes="" shape="396.48,85.58 404.00,85.58 403.52,85.57 396.00,85.58">
        <request index="0" response="00" foes="00"/>
        <request index="1" response="00" foes="00"/>
    </junction>
    <junction id="115.37.00" type="priority" x="252.28" y="34.38" incLanes="115.37.00_0 -115.6.00_0" intLanes="" shape="256.15,36.16 250.83,30.84 248.71,32.96 256.30,40.54">
        <request index="0" response="00" foes="00"/>
        <request index="1" response="00" foes="00"/>
    </junction>
    <junction id="115.6.00" type="priority" x="230.36" y="56.30" incLanes="115.6.00_0 115.6.00_1 -115.0.00_0" intLanes="" shape="235.45,61.39 227.86,53.81 235.45,61.39">
        <request index="0" response="000" foes="000"/>
        <request index="1" response="000" foes="000"/>
        <request index="2" response="000" foes="000"/>
    </junction>
    <junction id="116.37.00" type="priority" x="147.73" y="138.93" incLanes="-116.6.00_0 116.37.00_0" intLanes="" shape="151.29,140.35 143.71,132.77 143.85,137.15 149.17,142.47">
        <request index="0" response="00" foes="00"/>
        <request index="1" response="00" foes="00"/>
    </junction>
    <junction id="116.6.00" type="priority" x="169.65" y="117.01" incLanes="-116.0.00_0 116.6.00_0 116.6.00_1" intLanes="" shape="172.10,119.46 164.56,111.92 172.14,119.50">
        <request index="0" response="000" foes="000"/>
        <request index="1" response="000" foes="000"/>
        <request index="2" response="000" foes="000"/>
    </junction>
    <junction id="117.116" type="priority" x="0.00" y="85.58" incLanes="-116.37.00_0 -117.37.00_0" intLanes="" shape="-3.52,72.30 -0.32,72.30 0.80,72.69 4.00,72.69 -3.57,72.68">
        <request index="0" response="00" foes="00"/>
        <request index="1" response="00" foes="00"/>
    </junction>
    <junction id="117.37.00" type="priority" x="147.72" y="34.38" incLanes="-117.6.00_0 117.37.00_0" intLanes="" shape="146.30,37.94 153.89,30.36 149.50,30.50 144.18,35.82">
        <request index="0" response="00" foes="00"/>
        <request index="1" response="00" foes="00"/>
    </junction>
    <junction id="117.6.00" type="priority" x="169.64" y="56.30" incLanes="-117.0.00_0 117.6.00_0 117.6.00_1" intLanes="" shape="167.19,58.76 174.74,51.21 167.15,58.79">
        <request index="0" response="000" foes="000"/>
        <request index="1" response="000" foes="000"/>
        <request index="2" response="000" foes="000"/>
    </junction>
    <junction id="43" type="priority" x="214.99" y="71.11" incLanes="115.0.00_0 115.0.00_1 -108_0 -108_1" intLanes="" shape="217.72,77.19 224.18,74.61 226.10,70.74 218.55,63.19 215.16,63.76 213.72,70.56">
        <request index="0" response="0000" foes="1100"/>
        <request index="1" response="0000" foes="1100"/>
        <request index="2" response="0011" foes="0011"/>
        <request index="3" response="0011" foes="0011"/>
    </junction>
    <junction id="44" type="priority" x="184.45" y="71.66" incLanes="117.0.00_0 117.0.00_1 -101_0 -101_1" intLanes="" shape="190.54,68.93 187.96,62.48 184.08,60.55 176.54,68.10 177.10,71.49 183.90,72.93">
        <request index="0" response="0000" foes="1100"/>
        <request index="1" response="0000" foes="1100"/>
        <request index="2" response="0011" foes="0011"/>
        <request index="3" response="0011" foes="0011"/>
    </junction>
    <junction id="45" type="priority" x="185.01" y="102.20" incLanes="-119_0 -119_1 116.0.00_0 116.0.00_1" intLanes="" shape="184.84,109.55 186.28,102.75 182.28,96.12 175.82,98.70 173.90,102.57 181.45,110.12">
        <request index="0" response="1100" foes="1100"/>
        <request index="1" response="1100" foes="1100"/>
        <request index="2" response="0000" foes="0011"/>
        <request index="3" response="0000" foes="0011"/>
    </junction>
    <junction id="46" type="priority" x="215.55" y="101.65" incLanes="114.0.00_0 114.0.00_1 -113_0 -113_1" intLanes="" shape="215.92,112.76 223.46,105.21 222.90,101.82 216.10,100.38 209.46,104.38 212.04,110.83">
        <request index="0" response="0000" foes="1100"/>
        <request index="1" response="0000" foes="1100"/>
        <request index="2" response="0011" foes="0011"/>
        <request index="3" response="0011" foes="0011"/>
    </junction>

    <connection from="-101" to="-108" fromLane="0" toLane="0" dir="l" state="m"/>
    <connection from="-101" to="-108" fromLane="1" toLane="1" dir="l" state="m"/>
    <connection from="-108" to="-113" fromLane="0" toLane="0" dir="l" state="m"/>
    <connection from="-108" to="-113" fromLane="1" toLane="1" dir="l" state="m"/>
    <connection from="-113" to="-119" fromLane="0" toLane="0" dir="l" state="m"/>
    <connection from="-113" to="-119" fromLane="1" toLane="1" dir="l" state="m"/>
    <connection from="-114.0.00" to="-114.6.00" fromLane="0" toLane="0" dir="s" state="M"/>
    <connection from="-114.37.00" to="115.37.00" fromLane="0" toLane="0" dir="s" state="M"/>
    <connection from="-114.6.00" to="-114.37.00" fromLane="0" toLane="0" dir="s" state="M"/>
    <connection from="-115.0.00" to="-115.6.00" fromLane="0" toLane="0" dir="s" state="M"/>
    <connection from="-115.37.00" to="114.37.00" fromLane="0" toLane="0" dir="s" state="M"/>
    <connection from="-115.6.00" to="-115.37.00" fromLane="0" toLane="0" dir="s" state="M"/>
    <connection from="-116.0.00" to="-116.6.00" fromLane="0" toLane="0" dir="s" state="M"/>
    <connection from="-116.37.00" to="117.37.00" fromLane="0" toLane="0" dir="s" state="M"/>
    <connection from="-116.6.00" to="-116.37.00" fromLane="0" toLane="0" dir="s" state="M"/>
    <connection from="-117.0.00" to="-117.6.00" fromLane="0" toLane="0" dir="s" state="M"/>
    <connection from="-117.37.00" to="116.37.00" fromLane="0" toLane="0" dir="s" state="M"/>
    <connection from="-117.6.00" to="-117.37.00" fromLane="0" toLane="0" dir="s" state="M"/>
    <connection from="-119" to="-101" fromLane="0" toLane="0" dir="l" state="m"/>
    <connection from="-119" to="-101" fromLane="1" toLane="1" dir="l" state="m"/>
    <connection from="114.0.00" to="-119" fromLane="0" toLane="0" dir="r" state="M"/>
    <connection from="114.0.00" to="-119" fromLane="1" toLane="1" dir="r" state="M"/>
    <connection from="114.37.00" to="114.6.00" fromLane="0" toLane="0" dir="s" state="M"/>
    <connection from="114.6.00" to="114.0.00" fromLane="0" toLane="0" dir="s" state="M"/>
    <connection from="114.6.00" to="114.0.00" fromLane="1" toLane="1" dir="s" state="M"/>
    <connection from="115.0.00" to="-113" fromLane="0" toLane="0" dir="r" state="M"/>
    <connection from="115.0.00" to="-113" fromLane="1" toLane="1" dir="r" state="M"/>
    <connection from="115.37.00" to="115.6.00" fromLane="0" toLane="0" dir="s" state="M"/>
    <connection from="115.6.00" to="115.0.00" fromLane="0" toLane="0" dir="s" state="M"/>
    <connection from="115.6.00" to="115.0.00" fromLane="1" toLane="1" dir="s" state="M"/>
    <connection from="116.0.00" to="-101" fromLane="0" toLane="0" dir="r" state="M"/>
    <connection from="116.0.00" to="-101" fromLane="1" toLane="1" dir="r" state="M"/>
    <connection from="116.37.00" to="116.6.00" fromLane="0" toLane="0" dir="s" state="M"/>
    <connection from="116.6.00" to="116.0.00" fromLane="0" toLane="0" dir="s" state="M"/>
    <connection from="116.6.00" to="116.0.00" fromLane="1" toLane="1" dir="s" state="M"/>
    <connection from="117.0.00" to="-108" fromLane="0" toLane="0" dir="r" state="M"/>
    <connection from="117.0.00" to="-108" fromLane="1" toLane="1" dir="r" state="M"/>
    <connection from="117.37.00" to="117.6.00" fromLane="0" toLane="0" dir="s" state="M"/>
    <connection from="117.6.00" to="117.0.00" fromLane="0" toLane="0" dir="s" state="M"/>
    <connection from="117.6.00" to="117.0.00" fromLane="1" toLane="1" dir="s" state="M"/>

</net>
