<additional>
  <tlLogic id="1/1" type="static" programID="adapted" offset="0">
    <phase state="rrrGGgrrrGGg" duration="32" minDur="12" maxDur="52"/>
    <phase state="rrryyyrrryyy" duration="4"/>
    <phase state="rrrrrrrrrrrr" duration="4"/>
    <phase state="GGgrrrGGgrrr" duration="32" minDur="12" maxDur="52"/>
    <phase state="yyyrrryyyrrr" duration="4"/>
    <phase state="rrrrrrrrrrrr" duration="4"/>
  </tlLogic>
</additional>
