<routes>
		
			<vType id="type1" accel="2.0" decel="5.0" sigma="0.0" length="6.5" maxSpeed="70"/>
		
			<route id="WE" edges="1i 3o 5o"/>
			<route id="NS" edges="2i 4o 6o"/>
			<route id="EW" edges="3i 1o 7o"/>
			<route id="SN" edges="4i 2o 8o"/>
			
		
    <vehicle id="0" type="type1" route="EW" depart="0" departSpeed="13.89" />
    <vehicle id="1" type="type1" route="SN" depart="0" departSpeed="13.89" />
    <vehicle id="2" type="type1" route="NS" depart="1" departSpeed="13.89" />
    <vehicle id="3" type="type1" route="EW" depart="1" departSpeed="13.89" />
    <vehicle id="4" type="type1" route="WE" depart="2" departSpeed="13.89" />
    <vehicle id="5" type="type1" route="EW" depart="2" departSpeed="13.89" />
    <vehicle id="6" type="type1" route="SN" depart="2" departSpeed="13.89" />
    <vehicle id="7" type="type1" route="NS" depart="3" departSpeed="13.89" />
    <vehicle id="8" type="type1" route="EW" depart="3" departSpeed="13.89" />
    <vehicle id="9" type="type1" route="SN" depart="3" departSpeed="13.89" />
    <vehicle id="10" type="type1" route="EW" depart="4" departSpeed="13.89" />
    <vehicle id="11" type="type1" route="NS" depart="5" departSpeed="13.89" />
    <vehicle id="12" type="type1" route="SN" depart="5" departSpeed="13.89" />
    <vehicle id="13" type="type1" route="EW" depart="6" departSpeed="13.89" />
    <vehicle id="14" type="type1" route="WE" depart="7" departSpeed="13.89" />
    <vehicle id="15" type="type1" route="EW" depart="7" departSpeed="13.89" />
    <vehicle id="16" type="type1" route="NS" depart="8" departSpeed="13.89" />
    <vehicle id="17" type="type1" route="SN" depart="8" departSpeed="13.89" />
    <vehicle id="18" type="type1" route="EW" depart="9" departSpeed="13.89" />
    <vehicle id="19" type="type1" route="NS" depart="10" departSpeed="13.89" />
    <vehicle id="20" type="type1" route="EW" depart="10" departSpeed="13.89" />
    <vehicle id="21" type="type1" route="WE" depart="11" departSpeed="13.89" />
    <vehicle id="22" type="type1" route="NS" depart="11" departSpeed="13.89" />
    <vehicle id="23" type="type1" route="EW" depart="11" departSpeed="13.89" />
    <vehicle id="24" type="type1" route="SN" depart="11" departSpeed="13.89" />
    <vehicle id="25" type="type1" route="NS" depart="12" departSpeed="13.89" />
    <vehicle id="26" type="type1" route="SN" depart="12" departSpeed="13.89" />
    <vehicle id="27" type="type1" route="WE" depart="13" departSpeed="13.89" />
    <vehicle id="28" type="type1" route="NS" depart="13" departSpeed="13.89" />
    <vehicle id="29" type="type1" route="SN" depart="13" departSpeed="13.89" />
    <vehicle id="30" type="type1" route="WE" depart="14" departSpeed="13.89" />
    <vehicle id="31" type="type1" route="NS" depart="14" departSpeed="13.89" />
    <vehicle id="32" type="type1" route="EW" depart="14" departSpeed="13.89" />
    <vehicle id="33" type="type1" route="WE" depart="15" departSpeed="13.89" />
    <vehicle id="34" type="type1" route="WE" depart="16" departSpeed="13.89" />
    <vehicle id="35" type="type1" route="SN" depart="16" departSpeed="13.89" />
    <vehicle id="36" type="type1" route="EW" depart="17" departSpeed="13.89" />
    <vehicle id="37" type="type1" route="SN" depart="17" departSpeed="13.89" />
    <vehicle id="38" type="type1" route="NS" depart="18" departSpeed="13.89" />
    <vehicle id="39" type="type1" route="SN" depart="18" departSpeed="13.89" />
    <vehicle id="40" type="type1" route="WE" depart="19" departSpeed="13.89" />
    <vehicle id="41" type="type1" route="NS" depart="19" departSpeed="13.89" />
    <vehicle id="42" type="type1" route="WE" depart="20" departSpeed="13.89" />
    <vehicle id="43" type="type1" route="NS" depart="20" departSpeed="13.89" />
    <vehicle id="44" type="type1" route="EW" depart="20" departSpeed="13.89" />
    <vehicle id="45" type="type1" route="WE" depart="21" departSpeed="13.89" />
    <vehicle id="46" type="type1" route="NS" depart="21" departSpeed="13.89" />
    <vehicle id="47" type="type1" route="EW" depart="21" departSpeed="13.89" />
    <vehicle id="48" type="type1" route="SN" depart="21" departSpeed="13.89" />
    <vehicle id="49" type="type1" route="WE" depart="22" departSpeed="13.89" />
    <vehicle id="50" type="type1" route="NS" depart="22" departSpeed="13.89" />
    <vehicle id="51" type="type1" route="EW" depart="22" departSpeed="13.89" />
    <vehicle id="52" type="type1" route="SN" depart="22" departSpeed="13.89" />
    <vehicle id="53" type="type1" route="NS" depart="23" departSpeed="13.89" />
    <vehicle id="54" type="type1" route="SN" depart="23" departSpeed="13.89" />
    <vehicle id="55" type="type1" route="WE" depart="24" departSpeed="13.89" />
    <vehicle id="56" type="type1" route="EW" depart="24" departSpeed="13.89" />
    <vehicle id="57" type="type1" route="SN" depart="24" departSpeed="13.89" />
    <vehicle id="58" type="type1" route="WE" depart="25" departSpeed="13.89" />
    <vehicle id="59" type="type1" route="NS" depart="25" departSpeed="13.89" />
    <vehicle id="60" type="type1" route="EW" depart="25" departSpeed="13.89" />
    <vehicle id="61" type="type1" route="SN" depart="25" departSpeed="13.89" />
    <vehicle id="62" type="type1" route="WE" depart="26" departSpeed="13.89" />
    <vehicle id="63" type="type1" route="SN" depart="26" departSpeed="13.89" />
    <vehicle id="64" type="type1" route="WE" depart="27" departSpeed="13.89" />
    <vehicle id="65" type="type1" route="NS" depart="27" departSpeed="13.89" />
    <vehicle id="66" type="type1" route="WE" depart="28" departSpeed="13.89" />
    <vehicle id="67" type="type1" route="NS" depart="28" departSpeed="13.89" />
    <vehicle id="68" type="type1" route="EW" depart="28" departSpeed="13.89" />
    <vehicle id="69" type="type1" route="SN" depart="28" departSpeed="13.89" />
    <vehicle id="70" type="type1" route="NS" depart="29" departSpeed="13.89" />
    <vehicle id="71" type="type1" route="WE" depart="30" departSpeed="13.89" />
    <vehicle id="72" type="type1" route="EW" depart="30" departSpeed="13.89" />
    <vehicle id="73" type="type1" route="SN" depart="30" departSpeed="13.89" />
    <vehicle id="74" type="type1" route="WE" depart="31" departSpeed="13.89" />
    <vehicle id="75" type="type1" route="NS" depart="31" departSpeed="13.89" />
    <vehicle id="76" type="type1" route="EW" depart="31" departSpeed="13.89" />
    <vehicle id="77" type="type1" route="SN" depart="31" departSpeed="13.89" />
    <vehicle id="78" type="type1" route="WE" depart="32" departSpeed="13.89" />
    <vehicle id="79" type="type1" route="NS" depart="32" departSpeed="13.89" />
    <vehicle id="80" type="type1" route="EW" depart="32" departSpeed="13.89" />
    <vehicle id="81" type="type1" route="SN" depart="32" departSpeed="13.89" />
    <vehicle id="82" type="type1" route="WE" depart="33" departSpeed="13.89" />
    <vehicle id="83" type="type1" route="NS" depart="33" departSpeed="13.89" />
    <vehicle id="84" type="type1" route="EW" depart="33" departSpeed="13.89" />
    <vehicle id="85" type="type1" route="WE" depart="34" departSpeed="13.89" />
    <vehicle id="86" type="type1" route="EW" depart="34" departSpeed="13.89" />
    <vehicle id="87" type="type1" route="SN" depart="34" departSpeed="13.89" />
    <vehicle id="88" type="type1" route="WE" depart="35" departSpeed="13.89" />
    <vehicle id="89" type="type1" route="NS" depart="35" departSpeed="13.89" />
    <vehicle id="90" type="type1" route="SN" depart="35" departSpeed="13.89" />
    <vehicle id="91" type="type1" route="WE" depart="36" departSpeed="13.89" />
    <vehicle id="92" type="type1" route="NS" depart="36" departSpeed="13.89" />
    <vehicle id="93" type="type1" route="EW" depart="36" departSpeed="13.89" />
    <vehicle id="94" type="type1" route="NS" depart="37" departSpeed="13.89" />
    <vehicle id="95" type="type1" route="EW" depart="37" departSpeed="13.89" />
    <vehicle id="96" type="type1" route="WE" depart="38" departSpeed="13.89" />
    <vehicle id="97" type="type1" route="NS" depart="38" departSpeed="13.89" />
    <vehicle id="98" type="type1" route="EW" depart="38" departSpeed="13.89" />
    <vehicle id="99" type="type1" route="WE" depart="39" departSpeed="13.89" />
    <vehicle id="100" type="type1" route="NS" depart="39" departSpeed="13.89" />
    <vehicle id="101" type="type1" route="SN" depart="39" departSpeed="13.89" />
    <vehicle id="102" type="type1" route="WE" depart="40" departSpeed="13.89" />
    <vehicle id="103" type="type1" route="NS" depart="40" departSpeed="13.89" />
    <vehicle id="104" type="type1" route="SN" depart="40" departSpeed="13.89" />
    <vehicle id="105" type="type1" route="NS" depart="41" departSpeed="13.89" />
    <vehicle id="106" type="type1" route="EW" depart="42" departSpeed="13.89" />
    <vehicle id="107" type="type1" route="NS" depart="43" departSpeed="13.89" />
    <vehicle id="108" type="type1" route="EW" depart="43" departSpeed="13.89" />
    <vehicle id="109" type="type1" route="WE" depart="44" departSpeed="13.89" />
    <vehicle id="110" type="type1" route="NS" depart="44" departSpeed="13.89" />
    <vehicle id="111" type="type1" route="EW" depart="44" departSpeed="13.89" />
    <vehicle id="112" type="type1" route="WE" depart="45" departSpeed="13.89" />
    <vehicle id="113" type="type1" route="WE" depart="46" departSpeed="13.89" />
    <vehicle id="114" type="type1" route="EW" depart="46" departSpeed="13.89" />
    <vehicle id="115" type="type1" route="SN" depart="46" departSpeed="13.89" />
    <vehicle id="116" type="type1" route="WE" depart="47" departSpeed="13.89" />
    <vehicle id="117" type="type1" route="NS" depart="47" departSpeed="13.89" />
    <vehicle id="118" type="type1" route="EW" depart="47" departSpeed="13.89" />
    <vehicle id="119" type="type1" route="SN" depart="47" departSpeed="13.89" />
    <vehicle id="120" type="type1" route="WE" depart="48" departSpeed="13.89" />
    <vehicle id="121" type="type1" route="EW" depart="48" departSpeed="13.89" />
    <vehicle id="122" type="type1" route="SN" depart="48" departSpeed="13.89" />
    <vehicle id="123" type="type1" route="WE" depart="49" departSpeed="13.89" />
    <vehicle id="124" type="type1" route="NS" depart="49" departSpeed="13.89" />
    <vehicle id="125" type="type1" route="EW" depart="49" departSpeed="13.89" />
    <vehicle id="126" type="type1" route="SN" depart="49" departSpeed="13.89" />
    <vehicle id="127" type="type1" route="WE" depart="50" departSpeed="13.89" />
    <vehicle id="128" type="type1" route="EW" depart="50" departSpeed="13.89" />
    <vehicle id="129" type="type1" route="SN" depart="50" departSpeed="13.89" />
    <vehicle id="130" type="type1" route="WE" depart="51" departSpeed="13.89" />
    <vehicle id="131" type="type1" route="WE" depart="52" departSpeed="13.89" />
    <vehicle id="132" type="type1" route="EW" depart="52" departSpeed="13.89" />
    <vehicle id="133" type="type1" route="SN" depart="52" departSpeed="13.89" />
    <vehicle id="134" type="type1" route="WE" depart="53" departSpeed="13.89" />
    <vehicle id="135" type="type1" route="NS" depart="53" departSpeed="13.89" />
    <vehicle id="136" type="type1" route="EW" depart="53" departSpeed="13.89" />
    <vehicle id="137" type="type1" route="SN" depart="53" departSpeed="13.89" />
    <vehicle id="138" type="type1" route="EW" depart="54" departSpeed="13.89" />
    <vehicle id="139" type="type1" route="SN" depart="54" departSpeed="13.89" />
    <vehicle id="140" type="type1" route="NS" depart="55" departSpeed="13.89" />
    <vehicle id="141" type="type1" route="EW" depart="55" departSpeed="13.89" />
    <vehicle id="142" type="type1" route="SN" depart="55" departSpeed="13.89" />
    <vehicle id="143" type="type1" route="WE" depart="56" departSpeed="13.89" />
    <vehicle id="144" type="type1" route="NS" depart="56" departSpeed="13.89" />
    <vehicle id="145" type="type1" route="EW" depart="56" departSpeed="13.89" />
    <vehicle id="146" type="type1" route="SN" depart="56" departSpeed="13.89" />
    <vehicle id="147" type="type1" route="WE" depart="57" departSpeed="13.89" />
    <vehicle id="148" type="type1" route="WE" depart="58" departSpeed="13.89" />
    <vehicle id="149" type="type1" route="NS" depart="58" departSpeed="13.89" />
    <vehicle id="150" type="type1" route="SN" depart="58" departSpeed="13.89" />
    <vehicle id="151" type="type1" route="NS" depart="59" departSpeed="13.89" />
    <vehicle id="152" type="type1" route="WE" depart="60" departSpeed="13.89" />
    <vehicle id="153" type="type1" route="EW" depart="60" departSpeed="13.89" />
    <vehicle id="154" type="type1" route="EW" depart="61" departSpeed="13.89" />
    <vehicle id="155" type="type1" route="WE" depart="62" departSpeed="13.89" />
    <vehicle id="156" type="type1" route="EW" depart="62" departSpeed="13.89" />
    <vehicle id="157" type="type1" route="WE" depart="63" departSpeed="13.89" />
    <vehicle id="158" type="type1" route="NS" depart="63" departSpeed="13.89" />
    <vehicle id="159" type="type1" route="EW" depart="63" departSpeed="13.89" />
    <vehicle id="160" type="type1" route="SN" depart="63" departSpeed="13.89" />
    <vehicle id="161" type="type1" route="WE" depart="64" departSpeed="13.89" />
    <vehicle id="162" type="type1" route="NS" depart="64" departSpeed="13.89" />
    <vehicle id="163" type="type1" route="EW" depart="64" departSpeed="13.89" />
    <vehicle id="164" type="type1" route="NS" depart="65" departSpeed="13.89" />
    <vehicle id="165" type="type1" route="EW" depart="65" departSpeed="13.89" />
    <vehicle id="166" type="type1" route="SN" depart="65" departSpeed="13.89" />
    <vehicle id="167" type="type1" route="WE" depart="66" departSpeed="13.89" />
    <vehicle id="168" type="type1" route="EW" depart="66" departSpeed="13.89" />
    <vehicle id="169" type="type1" route="WE" depart="67" departSpeed="13.89" />
    <vehicle id="170" type="type1" route="NS" depart="67" departSpeed="13.89" />
    <vehicle id="171" type="type1" route="EW" depart="67" departSpeed="13.89" />
    <vehicle id="172" type="type1" route="SN" depart="67" departSpeed="13.89" />
    <vehicle id="173" type="type1" route="NS" depart="68" departSpeed="13.89" />
    <vehicle id="174" type="type1" route="EW" depart="68" departSpeed="13.89" />
    <vehicle id="175" type="type1" route="SN" depart="68" departSpeed="13.89" />
    <vehicle id="176" type="type1" route="WE" depart="69" departSpeed="13.89" />
    <vehicle id="177" type="type1" route="NS" depart="69" departSpeed="13.89" />
    <vehicle id="178" type="type1" route="EW" depart="69" departSpeed="13.89" />
    <vehicle id="179" type="type1" route="SN" depart="69" departSpeed="13.89" />
    <vehicle id="180" type="type1" route="WE" depart="70" departSpeed="13.89" />
    <vehicle id="181" type="type1" route="NS" depart="70" departSpeed="13.89" />
    <vehicle id="182" type="type1" route="EW" depart="70" departSpeed="13.89" />
    <vehicle id="183" type="type1" route="SN" depart="70" departSpeed="13.89" />
    <vehicle id="184" type="type1" route="WE" depart="71" departSpeed="13.89" />
    <vehicle id="185" type="type1" route="NS" depart="71" departSpeed="13.89" />
    <vehicle id="186" type="type1" route="SN" depart="71" departSpeed="13.89" />
    <vehicle id="187" type="type1" route="SN" depart="73" departSpeed="13.89" />
    <vehicle id="188" type="type1" route="NS" depart="74" departSpeed="13.89" />
    <vehicle id="189" type="type1" route="EW" depart="74" departSpeed="13.89" />
    <vehicle id="190" type="type1" route="SN" depart="74" departSpeed="13.89" />
    <vehicle id="191" type="type1" route="NS" depart="75" departSpeed="13.89" />
    <vehicle id="192" type="type1" route="EW" depart="75" departSpeed="13.89" />
    <vehicle id="193" type="type1" route="WE" depart="76" departSpeed="13.89" />
    <vehicle id="194" type="type1" route="NS" depart="76" departSpeed="13.89" />
    <vehicle id="195" type="type1" route="EW" depart="76" departSpeed="13.89" />
    <vehicle id="196" type="type1" route="SN" depart="76" departSpeed="13.89" />
    <vehicle id="197" type="type1" route="WE" depart="77" departSpeed="13.89" />
    <vehicle id="198" type="type1" route="EW" depart="78" departSpeed="13.89" />
    <vehicle id="199" type="type1" route="SN" depart="78" departSpeed="13.89" />
    <vehicle id="200" type="type1" route="WE" depart="79" departSpeed="13.89" />
    <vehicle id="201" type="type1" route="NS" depart="79" departSpeed="13.89" />
    <vehicle id="202" type="type1" route="EW" depart="79" departSpeed="13.89" />
    <vehicle id="203" type="type1" route="WE" depart="80" departSpeed="13.89" />
    <vehicle id="204" type="type1" route="NS" depart="80" departSpeed="13.89" />
    <vehicle id="205" type="type1" route="EW" depart="80" departSpeed="13.89" />
    <vehicle id="206" type="type1" route="EW" depart="81" departSpeed="13.89" />
    <vehicle id="207" type="type1" route="SN" depart="81" departSpeed="13.89" />
    <vehicle id="208" type="type1" route="WE" depart="82" departSpeed="13.89" />
    <vehicle id="209" type="type1" route="NS" depart="83" departSpeed="13.89" />
    <vehicle id="210" type="type1" route="WE" depart="84" departSpeed="13.89" />
    <vehicle id="211" type="type1" route="NS" depart="84" departSpeed="13.89" />
    <vehicle id="212" type="type1" route="EW" depart="84" departSpeed="13.89" />
    <vehicle id="213" type="type1" route="NS" depart="85" departSpeed="13.89" />
    <vehicle id="214" type="type1" route="SN" depart="85" departSpeed="13.89" />
    <vehicle id="215" type="type1" route="NS" depart="86" departSpeed="13.89" />
    <vehicle id="216" type="type1" route="EW" depart="86" departSpeed="13.89" />
    <vehicle id="217" type="type1" route="SN" depart="86" departSpeed="13.89" />
    <vehicle id="218" type="type1" route="NS" depart="87" departSpeed="13.89" />
    <vehicle id="219" type="type1" route="EW" depart="87" departSpeed="13.89" />
    <vehicle id="220" type="type1" route="NS" depart="88" departSpeed="13.89" />
    <vehicle id="221" type="type1" route="SN" depart="88" departSpeed="13.89" />
    <vehicle id="222" type="type1" route="WE" depart="89" departSpeed="13.89" />
    <vehicle id="223" type="type1" route="EW" depart="89" departSpeed="13.89" />
    <vehicle id="224" type="type1" route="EW" depart="90" departSpeed="13.89" />
    <vehicle id="225" type="type1" route="SN" depart="90" departSpeed="13.89" />
    <vehicle id="226" type="type1" route="WE" depart="91" departSpeed="13.89" />
    <vehicle id="227" type="type1" route="NS" depart="91" departSpeed="13.89" />
    <vehicle id="228" type="type1" route="EW" depart="91" departSpeed="13.89" />
    <vehicle id="229" type="type1" route="SN" depart="91" departSpeed="13.89" />
    <vehicle id="230" type="type1" route="WE" depart="92" departSpeed="13.89" />
    <vehicle id="231" type="type1" route="SN" depart="92" departSpeed="13.89" />
    <vehicle id="232" type="type1" route="WE" depart="93" departSpeed="13.89" />
    <vehicle id="233" type="type1" route="EW" depart="93" departSpeed="13.89" />
    <vehicle id="234" type="type1" route="WE" depart="94" departSpeed="13.89" />
    <vehicle id="235" type="type1" route="NS" depart="94" departSpeed="13.89" />
    <vehicle id="236" type="type1" route="EW" depart="94" departSpeed="13.89" />
    <vehicle id="237" type="type1" route="SN" depart="94" departSpeed="13.89" />
    <vehicle id="238" type="type1" route="WE" depart="95" departSpeed="13.89" />
    <vehicle id="239" type="type1" route="NS" depart="95" departSpeed="13.89" />
    <vehicle id="240" type="type1" route="EW" depart="95" departSpeed="13.89" />
    <vehicle id="241" type="type1" route="WE" depart="96" departSpeed="13.89" />
    <vehicle id="242" type="type1" route="SN" depart="97" departSpeed="13.89" />
    <vehicle id="243" type="type1" route="WE" depart="98" departSpeed="13.89" />
    <vehicle id="244" type="type1" route="SN" depart="98" departSpeed="13.89" />
    <vehicle id="245" type="type1" route="EW" depart="99" departSpeed="13.89" />
    <vehicle id="246" type="type1" route="SN" depart="99" departSpeed="13.89" />
    <vehicle id="247" type="type1" route="WE" depart="100" departSpeed="13.89" />
    <vehicle id="248" type="type1" route="EW" depart="100" departSpeed="13.89" />
    <vehicle id="249" type="type1" route="WE" depart="101" departSpeed="13.89" />
    <vehicle id="250" type="type1" route="SN" depart="101" departSpeed="13.89" />
    <vehicle id="251" type="type1" route="WE" depart="102" departSpeed="13.89" />
    <vehicle id="252" type="type1" route="NS" depart="102" departSpeed="13.89" />
    <vehicle id="253" type="type1" route="NS" depart="103" departSpeed="13.89" />
    <vehicle id="254" type="type1" route="SN" depart="103" departSpeed="13.89" />
    <vehicle id="255" type="type1" route="WE" depart="104" departSpeed="13.89" />
    <vehicle id="256" type="type1" route="EW" depart="104" departSpeed="13.89" />
    <vehicle id="257" type="type1" route="EW" depart="105" departSpeed="13.89" />
    <vehicle id="258" type="type1" route="SN" depart="105" departSpeed="13.89" />
    <vehicle id="259" type="type1" route="WE" depart="106" departSpeed="13.89" />
    <vehicle id="260" type="type1" route="NS" depart="106" departSpeed="13.89" />
    <vehicle id="261" type="type1" route="EW" depart="106" departSpeed="13.89" />
    <vehicle id="262" type="type1" route="WE" depart="107" departSpeed="13.89" />
    <vehicle id="263" type="type1" route="EW" depart="107" departSpeed="13.89" />
    <vehicle id="264" type="type1" route="SN" depart="107" departSpeed="13.89" />
    <vehicle id="265" type="type1" route="NS" depart="108" departSpeed="13.89" />
    <vehicle id="266" type="type1" route="EW" depart="108" departSpeed="13.89" />
    <vehicle id="267" type="type1" route="SN" depart="108" departSpeed="13.89" />
    <vehicle id="268" type="type1" route="NS" depart="109" departSpeed="13.89" />
    <vehicle id="269" type="type1" route="EW" depart="109" departSpeed="13.89" />
    <vehicle id="270" type="type1" route="SN" depart="109" departSpeed="13.89" />
    <vehicle id="271" type="type1" route="NS" depart="110" departSpeed="13.89" />
    <vehicle id="272" type="type1" route="EW" depart="110" departSpeed="13.89" />
    <vehicle id="273" type="type1" route="SN" depart="110" departSpeed="13.89" />
    <vehicle id="274" type="type1" route="WE" depart="111" departSpeed="13.89" />
    <vehicle id="275" type="type1" route="NS" depart="111" departSpeed="13.89" />
    <vehicle id="276" type="type1" route="SN" depart="113" departSpeed="13.89" />
    <vehicle id="277" type="type1" route="EW" depart="114" departSpeed="13.89" />
    <vehicle id="278" type="type1" route="WE" depart="115" departSpeed="13.89" />
    <vehicle id="279" type="type1" route="NS" depart="115" departSpeed="13.89" />
    <vehicle id="280" type="type1" route="EW" depart="115" departSpeed="13.89" />
    <vehicle id="281" type="type1" route="SN" depart="115" departSpeed="13.89" />
    <vehicle id="282" type="type1" route="NS" depart="116" departSpeed="13.89" />
    <vehicle id="283" type="type1" route="EW" depart="116" departSpeed="13.89" />
    <vehicle id="284" type="type1" route="SN" depart="116" departSpeed="13.89" />
    <vehicle id="285" type="type1" route="WE" depart="117" departSpeed="13.89" />
    <vehicle id="286" type="type1" route="NS" depart="117" departSpeed="13.89" />
    <vehicle id="287" type="type1" route="EW" depart="117" departSpeed="13.89" />
    <vehicle id="288" type="type1" route="WE" depart="118" departSpeed="13.89" />
    <vehicle id="289" type="type1" route="NS" depart="118" departSpeed="13.89" />
    <vehicle id="290" type="type1" route="SN" depart="118" departSpeed="13.89" />
    <vehicle id="291" type="type1" route="WE" depart="119" departSpeed="13.89" />
    <vehicle id="292" type="type1" route="EW" depart="119" departSpeed="13.89" />
    <vehicle id="293" type="type1" route="SN" depart="119" departSpeed="13.89" />
    <vehicle id="294" type="type1" route="WE" depart="120" departSpeed="13.89" />
    <vehicle id="295" type="type1" route="NS" depart="120" departSpeed="13.89" />
    <vehicle id="296" type="type1" route="SN" depart="120" departSpeed="13.89" />
    <vehicle id="297" type="type1" route="WE" depart="121" departSpeed="13.89" />
    <vehicle id="298" type="type1" route="NS" depart="121" departSpeed="13.89" />
    <vehicle id="299" type="type1" route="EW" depart="121" departSpeed="13.89" />
    <vehicle id="300" type="type1" route="SN" depart="121" departSpeed="13.89" />
    <vehicle id="301" type="type1" route="NS" depart="122" departSpeed="13.89" />
    <vehicle id="302" type="type1" route="SN" depart="122" departSpeed="13.89" />
    <vehicle id="303" type="type1" route="WE" depart="123" departSpeed="13.89" />
    <vehicle id="304" type="type1" route="NS" depart="123" departSpeed="13.89" />
    <vehicle id="305" type="type1" route="SN" depart="123" departSpeed="13.89" />
    <vehicle id="306" type="type1" route="NS" depart="124" departSpeed="13.89" />
    <vehicle id="307" type="type1" route="EW" depart="124" departSpeed="13.89" />
    <vehicle id="308" type="type1" route="NS" depart="125" departSpeed="13.89" />
    <vehicle id="309" type="type1" route="EW" depart="125" departSpeed="13.89" />
    <vehicle id="310" type="type1" route="SN" depart="125" departSpeed="13.89" />
    <vehicle id="311" type="type1" route="SN" depart="126" departSpeed="13.89" />
    <vehicle id="312" type="type1" route="NS" depart="127" departSpeed="13.89" />
    <vehicle id="313" type="type1" route="WE" depart="128" departSpeed="13.89" />
    <vehicle id="314" type="type1" route="NS" depart="128" departSpeed="13.89" />
    <vehicle id="315" type="type1" route="SN" depart="128" departSpeed="13.89" />
    <vehicle id="316" type="type1" route="WE" depart="130" departSpeed="13.89" />
    <vehicle id="317" type="type1" route="SN" depart="130" departSpeed="13.89" />
    <vehicle id="318" type="type1" route="WE" depart="131" departSpeed="13.89" />
    <vehicle id="319" type="type1" route="NS" depart="131" departSpeed="13.89" />
    <vehicle id="320" type="type1" route="EW" depart="131" departSpeed="13.89" />
    <vehicle id="321" type="type1" route="SN" depart="131" departSpeed="13.89" />
    <vehicle id="322" type="type1" route="WE" depart="132" departSpeed="13.89" />
    <vehicle id="323" type="type1" route="EW" depart="132" departSpeed="13.89" />
    <vehicle id="324" type="type1" route="WE" depart="133" departSpeed="13.89" />
    <vehicle id="325" type="type1" route="NS" depart="133" departSpeed="13.89" />
    <vehicle id="326" type="type1" route="WE" depart="134" departSpeed="13.89" />
    <vehicle id="327" type="type1" route="NS" depart="134" departSpeed="13.89" />
    <vehicle id="328" type="type1" route="WE" depart="135" departSpeed="13.89" />
    <vehicle id="329" type="type1" route="NS" depart="135" departSpeed="13.89" />
    <vehicle id="330" type="type1" route="EW" depart="135" departSpeed="13.89" />
    <vehicle id="331" type="type1" route="WE" depart="136" departSpeed="13.89" />
    <vehicle id="332" type="type1" route="NS" depart="136" departSpeed="13.89" />
    <vehicle id="333" type="type1" route="EW" depart="136" departSpeed="13.89" />
    <vehicle id="334" type="type1" route="WE" depart="138" departSpeed="13.89" />
    <vehicle id="335" type="type1" route="NS" depart="138" departSpeed="13.89" />
    <vehicle id="336" type="type1" route="EW" depart="138" departSpeed="13.89" />
    <vehicle id="337" type="type1" route="EW" depart="139" departSpeed="13.89" />
    <vehicle id="338" type="type1" route="SN" depart="139" departSpeed="13.89" />
    <vehicle id="339" type="type1" route="WE" depart="140" departSpeed="13.89" />
    <vehicle id="340" type="type1" route="NS" depart="140" departSpeed="13.89" />
    <vehicle id="341" type="type1" route="WE" depart="141" departSpeed="13.89" />
    <vehicle id="342" type="type1" route="NS" depart="141" departSpeed="13.89" />
    <vehicle id="343" type="type1" route="EW" depart="141" departSpeed="13.89" />
    <vehicle id="344" type="type1" route="WE" depart="142" departSpeed="13.89" />
    <vehicle id="345" type="type1" route="NS" depart="142" departSpeed="13.89" />
    <vehicle id="346" type="type1" route="EW" depart="142" departSpeed="13.89" />
    <vehicle id="347" type="type1" route="WE" depart="143" departSpeed="13.89" />
    <vehicle id="348" type="type1" route="EW" depart="143" departSpeed="13.89" />
    <vehicle id="349" type="type1" route="WE" depart="144" departSpeed="13.89" />
    <vehicle id="350" type="type1" route="EW" depart="144" departSpeed="13.89" />
    <vehicle id="351" type="type1" route="SN" depart="144" departSpeed="13.89" />
    <vehicle id="352" type="type1" route="WE" depart="145" departSpeed="13.89" />
    <vehicle id="353" type="type1" route="WE" depart="146" departSpeed="13.89" />
    <vehicle id="354" type="type1" route="NS" depart="146" departSpeed="13.89" />
    <vehicle id="355" type="type1" route="EW" depart="146" departSpeed="13.89" />
    <vehicle id="356" type="type1" route="SN" depart="146" departSpeed="13.89" />
    <vehicle id="357" type="type1" route="EW" depart="147" departSpeed="13.89" />
    <vehicle id="358" type="type1" route="SN" depart="147" departSpeed="13.89" />
    <vehicle id="359" type="type1" route="WE" depart="148" departSpeed="13.89" />
    <vehicle id="360" type="type1" route="NS" depart="148" departSpeed="13.89" />
    <vehicle id="361" type="type1" route="SN" depart="148" departSpeed="13.89" />
    <vehicle id="362" type="type1" route="EW" depart="149" departSpeed="13.89" />
    <vehicle id="363" type="type1" route="WE" depart="150" departSpeed="13.89" />
    <vehicle id="364" type="type1" route="NS" depart="150" departSpeed="13.89" />
    <vehicle id="365" type="type1" route="NS" depart="152" departSpeed="13.89" />
    <vehicle id="366" type="type1" route="EW" depart="152" departSpeed="13.89" />