<routes xmlns:xsi="http://www.w3.org/2001/XMLSchema-instance" xsi:noNamespaceSchemaLocation="http://sumo-sim.org/xsd/routes_file.xsd">   
  <route id="r1" edges="e_m5 e_m6 e_shape1 e_u1 e_u0 e_vu0"/>
</routes>
