<?xml version="1.0" encoding="UTF-8"?>

<!-- generated on Fri Apr 11 14:35:37 2014 by SUMO netconvert Version dev-SVN-r16172
<?xml version="1.0" encoding="UTF-8"?>

<configuration xmlns:xsi="http://www.w3.org/2001/XMLSchema-instance" xsi:noNamespaceSchemaLocation="http://sumo-sim.org/xsd/netconvertConfiguration.xsd">

    <input>
        <node-files value="input_plain.nod.xml"/>
        <edge-files value="input_plain.edg.xml"/>
    </input>

    <output>
        <output-file value="net.net.xml"/>
        <plain-output-prefix value="plain"/>
    </output>

    <processing>
        <no-turnarounds value="true"/>
        <crossings.guess value="true"/>
    </processing>

    <report>
        <xml-validation value="never"/>
    </report>

</configuration>
-->

<edges version="0.13" xmlns:xsi="http://www.w3.org/2001/XMLSchema-instance" xsi:noNamespaceSchemaLocation="http://sumo-sim.org/xsd/edges_file.xsd">
    <edge id="CW" from="C" to="W" priority="2" numLanes="4" speed="13.89">
        <lane index="0" allow="pedestrian" width="3.00"/>
        <lane index="1" disallow="private public_transport public_emergency public_authority public_army vip ignoring passenger hov taxi bus delivery transport lightrail cityrail rail_slow rail_fast motorcycle bicycle pedestrian custom1 custom2" width="1.50"/>
        <lane index="2" allow="passenger"/>
        <lane index="3" allow="passenger"/>
    </edge>
    <edge id="EC" from="E" to="C" priority="2" numLanes="4" speed="13.89">
        <lane index="0" allow="pedestrian" width="3.00"/>
        <lane index="1" disallow="private public_transport public_emergency public_authority public_army vip ignoring passenger hov taxi bus delivery transport lightrail cityrail rail_slow rail_fast motorcycle bicycle pedestrian custom1 custom2" width="1.50"/>
        <lane index="2" allow="passenger"/>
        <lane index="3" allow="passenger"/>
    </edge>
</edges>
