<?xml version="1.0" encoding="UTF-8"?>

<!-- generated on 03/26/13 09:11:17 by SUMO netconvert Version dev-SVN-rUNKNOWN
<?xml version="1.0" encoding="UTF-8"?>

<configuration xmlns:xsi="http://www.w3.org/2001/XMLSchema-instance" xsi:noNamespaceSchemaLocation="http://sumo.sf.net/xsd/netconvertConfiguration.xsd">

    <input>
        <opendrive-files value="opendrive.xodr"/>
    </input>

    <output>
        <output-file value="net.net.xml"/>
    </output>

    <processing>
        <no-internal-links value="true"/>
        <geometry.min-dist value=""/>
    </processing>

    <report>
        <verbose value="true"/>
    </report>

</configuration>
-->

<net version="0.13" xmlns:xsi="http://www.w3.org/2001/XMLSchema-instance" xsi:noNamespaceSchemaLocation="http://sumo.sf.net/xsd/net_file.xsd">

    <location netOffset="198.90,86.38" convBoundary="0.00,0.00,397.80,170.59" origBoundary="-198.90,-86.38,198.90,84.21" projParameter="!"/>

    <edge id="-501" from="2" to="508.501" priority="2" shape="205.97,93.45 208.80,96.28">
        <lane id="-501_0" index="0" speed="13.90" length="8.50" width="3.75" shape="204.15,88.91 210.16,94.92"/>
    </edge>
    <edge id="-502" from="2" to="509.502" priority="0" shape="191.83,93.45 189.00,96.28">
        <lane id="-502_0" index="0" speed="13.90" length="8.53" width="3.75" shape="196.37,91.63 190.34,97.66"/>
    </edge>
    <edge id="-508" from="516.508" to="508.501" priority="1" shape="208.80,76.48 258.95,26.33 311.64,0.00 367.88,16.47 397.80,66.86 394.77,118.27 338.66,170.59 280.52,163.31 208.80,96.28">
        <lane id="-508_0" index="0" speed="13.90" length="541.46" width="3.75" shape="207.44,75.12 257.81,24.75 311.45,-2.06 369.15,14.84 399.76,66.38 396.64,119.15 339.32,172.61 279.66,165.14 207.46,97.66"/>
    </edge>
    <edge id="-509" from="514.509" to="509.502" priority="1" shape="189.00,76.48 138.85,26.33 86.16,0.00 29.92,16.47 0.00,66.86 3.04,118.27 59.14,170.59 117.29,163.31 189.00,96.28">
        <lane id="-509_0" index="0" speed="13.90" length="522.58" width="3.75" shape="187.64,77.84 137.71,27.91 85.98,2.06 31.19,18.11 1.96,67.34 4.91,117.39 59.79,168.56 116.43,161.48 187.69,94.87"/>
    </edge>
    <edge id="-514" from="2" to="514.509" priority="2" shape="191.83,79.31 189.00,76.48">
        <lane id="-514_0" index="0" speed="13.90" length="8.50" width="3.75" shape="193.65,83.85 187.64,77.84"/>
    </edge>
    <edge id="-516" from="2" to="516.508" priority="0" shape="205.97,79.31 208.80,76.48">
        <lane id="-516_0" index="0" speed="13.90" length="8.50" width="3.75" shape="201.43,81.13 207.44,75.12"/>
    </edge>
    <edge id="501" from="508.501" to="2" priority="1" shape="208.80,96.28 205.97,93.45">
        <lane id="501_0" index="0" speed="13.90" length="8.55" width="4.70" shape="207.14,98.01 201.09,91.97"/>
    </edge>
    <edge id="502" from="509.502" to="2" priority="1" shape="189.00,96.28 191.83,93.45">
        <lane id="502_0" index="0" speed="13.90" length="8.39" width="4.70" shape="187.38,94.51 193.31,88.57"/>
    </edge>
    <edge id="508" from="508.501" to="516.508" priority="1" shape="208.80,96.28 280.52,163.31 338.66,170.59 394.77,118.27 397.80,66.86 367.88,16.47 311.64,0.00 258.95,26.33 208.80,76.48">
        <lane id="508_0" index="0" speed="13.90" length="520.15" width="4.70" shape="210.52,94.60 281.59,161.02 337.85,168.07 392.43,117.17 395.36,67.45 366.30,18.51 311.87,2.57 260.37,28.30 210.50,78.18"/>
    </edge>
    <edge id="509" from="509.502" to="514.509" priority="1" shape="189.00,96.28 117.29,163.31 59.14,170.59 3.04,118.27 0.00,66.86 29.92,16.47 86.16,0.00 138.85,26.33 189.00,76.48">
        <lane id="509_0" index="0" speed="13.90" length="543.80" width="4.70" shape="190.68,98.00 118.36,165.59 58.32,173.11 0.70,119.37 -2.44,66.27 28.34,14.43 86.39,-2.57 140.27,24.36 190.70,74.78"/>
    </edge>
    <edge id="514" from="514.509" to="2" priority="1" shape="189.00,76.48 191.83,79.31">
        <lane id="514_0" index="0" speed="13.90" length="8.50" width="4.70" shape="190.70,74.78 196.71,80.79"/>
    </edge>
    <edge id="516" from="516.508" to="2" priority="1" shape="208.80,76.48 205.97,79.31">
        <lane id="516_0" index="0" speed="13.90" length="8.50" width="4.70" shape="210.50,78.18 204.49,84.19"/>
    </edge>

    <junction id="2" type="priority" x="198.90" y="86.38" incLanes="501_0 516_0 514_0 502_0" intLanes="" shape="199.96,93.10 205.28,87.78 205.62,85.32 200.30,80.00 197.84,79.66 192.52,84.98 192.18,87.44 197.50,92.76">
        <request index="0" response="000000000000" foes="000100010000"/>
        <request index="1" response="000000000000" foes="111100110000"/>
        <request index="2" response="000011000000" foes="110011110000"/>
        <request index="3" response="000010000000" foes="100010000000"/>
        <request index="4" response="000110000111" foes="100110000111"/>
        <request index="5" response="011110000110" foes="011110000110"/>
        <request index="6" response="000000000000" foes="010000000100"/>
        <request index="7" response="000000000000" foes="110000111100"/>
        <request index="8" response="000000000011" foes="110000110011"/>
        <request index="9" response="000000000010" foes="000000100010"/>
        <request index="10" response="000111000110" foes="000111100110"/>
        <request index="11" response="000110011110" foes="000110011110"/>
    </junction>
    <junction id="508.501" type="priority" x="208.80" y="96.28" incLanes="-508_0 -501_0" intLanes="" shape="206.37,98.83 211.51,93.33 211.31,93.80 205.99,99.12">
        <request index="0" response="00" foes="00"/>
        <request index="1" response="00" foes="00"/>
    </junction>
    <junction id="509.502" type="priority" x="189.00" y="96.28" incLanes="-502_0 -509_0" intLanes="" shape="191.47,98.79 186.15,93.47 186.61,93.69 191.75,99.18">
        <request index="0" response="00" foes="00"/>
        <request index="1" response="00" foes="00"/>
    </junction>
    <junction id="514.509" type="priority" x="189.00" y="76.48" incLanes="-514_0 509_0" intLanes="" shape="186.51,78.97 191.83,73.65 186.51,78.97">
        <request index="0" response="00" foes="00"/>
        <request index="1" response="00" foes="00"/>
    </junction>
    <junction id="516.508" type="priority" x="208.80" y="76.48" incLanes="508_0 -516_0" intLanes="" shape="211.63,79.31 206.31,73.99 211.63,79.31">
        <request index="0" response="00" foes="00"/>
        <request index="1" response="00" foes="00"/>
    </junction>

    <connection from="-501" to="508" fromLane="0" toLane="0" dir="s" state="M"/>
    <connection from="-502" to="509" fromLane="0" toLane="0" dir="s" state="M"/>
    <connection from="-508" to="501" fromLane="0" toLane="0" dir="s" state="M"/>
    <connection from="-509" to="502" fromLane="0" toLane="0" dir="s" state="M"/>
    <connection from="-514" to="-509" fromLane="0" toLane="0" dir="s" state="M"/>
    <connection from="-516" to="-508" fromLane="0" toLane="0" dir="s" state="M"/>
    <connection from="501" to="-502" fromLane="0" toLane="0" dir="r" state="M"/>
    <connection from="501" to="-514" fromLane="0" toLane="0" dir="s" state="M"/>
    <connection from="501" to="-516" fromLane="0" toLane="0" dir="l" state="m"/>
    <connection from="502" to="-514" fromLane="0" toLane="0" dir="r" state="m"/>
    <connection from="502" to="-516" fromLane="0" toLane="0" dir="s" state="m"/>
    <connection from="502" to="-501" fromLane="0" toLane="0" dir="l" state="m"/>
    <connection from="508" to="516" fromLane="0" toLane="0" dir="s" state="M"/>
    <connection from="509" to="514" fromLane="0" toLane="0" dir="s" state="M"/>
    <connection from="514" to="-516" fromLane="0" toLane="0" dir="r" state="M"/>
    <connection from="514" to="-501" fromLane="0" toLane="0" dir="s" state="M"/>
    <connection from="514" to="-502" fromLane="0" toLane="0" dir="l" state="m"/>
    <connection from="516" to="-501" fromLane="0" toLane="0" dir="r" state="m"/>
    <connection from="516" to="-502" fromLane="0" toLane="0" dir="s" state="m"/>
    <connection from="516" to="-514" fromLane="0" toLane="0" dir="l" state="m"/>

</net>
