<?xml version="1.0" encoding="UTF-8"?>

<!-- generated on 03/26/13 09:11:14 by SUMO netconvert Version dev-SVN-rUNKNOWN
<?xml version="1.0" encoding="UTF-8"?>

<configuration xmlns:xsi="http://www.w3.org/2001/XMLSchema-instance" xsi:noNamespaceSchemaLocation="http://sumo.sf.net/xsd/netconvertConfiguration.xsd">

    <input>
        <opendrive-files value="opendrive.xodr"/>
    </input>

    <output>
        <output-file value="net.net.xml"/>
    </output>

    <processing>
        <no-internal-links value="true"/>
    </processing>

    <report>
        <verbose value="true"/>
    </report>

</configuration>
-->

<net version="0.13" xmlns:xsi="http://www.w3.org/2001/XMLSchema-instance" xsi:noNamespaceSchemaLocation="http://sumo.sf.net/xsd/net_file.xsd">

    <location netOffset="200.00,86.66" convBoundary="0.00,0.00,400.00,173.36" origBoundary="-200.00,-86.66,200.00,86.70" projParameter="!"/>

    <edge id="-501" from="2" to="508.501" priority="2" shape="207.07,93.73 209.90,96.55">
        <lane id="-501_0" index="0" speed="13.90" length="8.50" width="3.75" shape="205.25,89.18 211.26,95.19"/>
    </edge>
    <edge id="-502" from="2" to="509.502" priority="0" shape="192.93,93.73 190.10,96.55">
        <lane id="-502_0" index="0" speed="13.90" length="8.50" width="3.75" shape="197.47,91.91 191.46,97.92"/>
    </edge>
    <edge id="-508" from="516.508" to="508.501" priority="1" shape="209.90,76.76 259.34,27.31 260.05,26.61 260.76,25.90 261.47,25.20 262.18,24.49 262.89,23.79 263.61,23.10 264.34,22.41 265.07,21.72 265.80,21.05 266.54,20.37 267.48,19.55 275.42,13.48 284.05,8.45 293.25,4.53 302.86,1.79 312.74,0.28 322.73,0.00 332.67,0.97 342.42,3.18 351.82,6.58 360.72,11.13 368.98,16.75 376.48,23.36 383.09,30.85 388.72,39.10 393.28,48.00 396.69,57.39 398.90,67.14 399.74,74.33 399.80,75.33 399.85,76.33 399.90,77.33 399.93,78.33 399.95,79.33 399.97,80.33 399.99,81.33 399.99,82.33 400.00,83.33 400.00,84.33 400.00,85.58 400.00,86.66 400.00,87.73 400.00,88.73 400.00,89.73 400.00,90.73 399.99,91.73 399.98,92.73 399.96,93.73 399.94,94.73 399.91,95.73 399.87,96.73 399.81,97.73 399.74,98.98 398.41,108.88 395.87,118.55 392.13,127.82 387.27,136.55 381.36,144.61 374.49,151.87 366.77,158.21 358.32,163.55 349.27,167.79 339.76,170.86 329.95,172.73 319.97,173.36 310.00,172.74 300.18,170.88 290.67,167.81 281.61,163.58 273.16,158.26 267.48,153.76 266.73,153.10 265.99,152.43 265.25,151.76 264.52,151.07 263.79,150.38 263.07,149.69 262.36,148.99 261.64,148.29 260.93,147.59 260.23,146.88 259.34,146.00 209.90,96.55">
        <lane id="-508_0" index="0" speed="13.90" length="550.32" width="3.75" shape="208.54,75.39 257.98,25.95 258.69,25.24 259.40,24.54 260.11,23.83 260.83,23.12 261.55,22.42 262.27,21.71 263.01,21.02 263.75,20.32 264.49,19.63 265.25,18.95 266.21,18.10 274.25,11.95 283.09,6.79 292.49,2.76 302.33,-0.06 312.44,-1.63 322.67,-1.92 332.86,-0.94 342.84,1.30 352.47,4.77 361.59,9.41 370.06,15.16 377.75,21.91 384.53,29.57 390.31,38.02 394.99,47.12 398.50,56.73 400.78,66.71 401.65,74.11 401.72,75.21 401.78,76.23 401.82,77.24 401.85,78.26 401.88,79.28 401.90,80.29 401.91,81.30 401.92,82.31 401.92,83.32 401.92,84.32 401.92,85.57 401.93,86.66 401.93,87.73 401.92,88.74 401.92,89.74 401.92,90.74 401.91,91.75 401.90,92.76 401.88,93.77 401.86,94.78 401.83,95.79 401.79,96.81 401.74,97.83 401.66,99.10 400.32,109.14 397.73,119.04 393.92,128.54 388.95,137.49 382.91,145.75 375.89,153.19 368.00,159.70 359.35,165.17 350.09,169.53 340.36,172.69 330.31,174.62 320.09,175.28 309.88,174.66 299.82,172.77 290.08,169.65 280.80,165.33 272.13,159.89 266.28,155.27 265.46,154.55 264.70,153.86 263.95,153.17 263.20,152.48 262.47,151.78 261.74,151.08 261.01,150.37 260.29,149.66 259.58,148.95 258.87,148.24 257.98,147.36 208.54,97.92"/>
    </edge>
    <edge id="-509" from="514.509" to="509.502" priority="1" shape="190.10,76.76 140.66,27.31 139.95,26.61 139.24,25.90 138.53,25.20 137.82,24.49 137.11,23.79 136.39,23.10 135.66,22.41 134.93,21.72 134.20,21.05 133.46,20.37 132.52,19.55 124.58,13.48 115.95,8.45 106.75,4.53 97.14,1.79 87.26,0.28 77.27,0.00 67.33,0.97 57.58,3.18 48.18,6.58 39.28,11.13 31.02,16.75 23.52,23.36 16.91,30.85 11.28,39.10 6.72,48.00 3.31,57.39 1.10,67.14 0.26,74.33 0.20,75.33 0.15,76.33 0.10,77.33 0.07,78.33 0.05,79.33 0.03,80.33 0.01,81.33 0.01,82.33 0.00,83.33 0.00,84.33 0.00,85.58 0.00,86.66 0.00,87.73 0.00,88.73 0.00,89.73 0.00,90.73 0.01,91.73 0.02,92.73 0.04,93.73 0.06,94.73 0.09,95.73 0.13,96.73 0.19,97.73 0.26,98.98 1.59,108.88 4.13,118.55 7.87,127.82 12.73,136.55 18.64,144.61 25.51,151.87 33.23,158.21 41.68,163.55 50.73,167.79 60.24,170.86 70.05,172.73 80.03,173.36 90.00,172.74 99.82,170.88 109.33,167.81 118.39,163.58 126.84,158.26 132.52,153.76 133.27,153.10 134.01,152.43 134.75,151.76 135.48,151.07 136.21,150.38 136.93,149.69 137.64,148.99 138.36,148.29 139.07,147.59 139.77,146.88 140.66,146.00 190.10,96.55">
        <lane id="-509_0" index="0" speed="13.90" length="532.22" width="3.75" shape="188.74,78.12 139.30,28.67 138.59,27.97 137.88,27.26 137.18,26.56 136.47,25.86 135.76,25.17 135.05,24.48 134.33,23.80 133.62,23.13 132.89,22.46 132.17,21.80 131.25,20.99 123.41,15.01 114.98,10.11 106.00,6.30 96.61,3.65 86.97,2.18 77.22,1.92 67.51,2.89 58.00,5.05 48.84,8.39 40.16,12.84 32.10,18.34 24.80,24.80 18.35,32.12 12.87,40.19 8.44,48.88 5.12,58.05 2.98,67.56 2.18,74.55 2.12,75.45 2.07,76.43 2.03,77.41 1.99,78.39 1.97,79.37 1.95,80.36 1.94,81.35 1.93,82.34 1.93,83.33 1.93,84.33 1.92,85.58 1.93,86.66 1.93,87.73 1.93,88.73 1.93,89.73 1.93,90.73 1.94,91.72 1.95,92.71 1.96,93.70 1.99,94.69 2.02,95.67 2.06,96.66 2.11,97.64 2.18,98.86 3.49,108.63 6.00,118.06 9.65,127.10 14.41,135.61 20.19,143.47 26.90,150.54 34.45,156.73 42.71,161.92 51.54,166.04 60.83,169.03 70.41,170.84 80.15,171.44 89.88,170.82 99.46,168.99 108.74,165.98 117.57,161.84 125.82,156.63 131.33,152.25 132.00,151.66 132.73,151.00 133.45,150.34 134.17,149.67 134.88,148.99 135.59,148.30 136.30,147.61 137.00,146.92 137.71,146.22 138.41,145.52 139.30,144.64 188.74,95.19"/>
    </edge>
    <edge id="-514" from="2" to="514.509" priority="2" shape="192.93,79.58 190.10,76.76">
        <lane id="-514_0" index="0" speed="13.90" length="8.50" width="3.75" shape="194.75,84.13 188.74,78.12"/>
    </edge>
    <edge id="-516" from="2" to="516.508" priority="0" shape="207.07,79.58 209.90,76.76">
        <lane id="-516_0" index="0" speed="13.90" length="8.50" width="3.75" shape="202.53,81.40 208.54,75.39"/>
    </edge>
    <edge id="501" from="508.501" to="2" priority="1" shape="209.90,96.55 207.07,93.73">
        <lane id="501_0" index="0" speed="13.90" length="8.50" width="4.70" shape="208.20,98.25 202.19,92.24"/>
    </edge>
    <edge id="502" from="509.502" to="2" priority="1" shape="190.10,96.55 192.93,93.73">
        <lane id="502_0" index="0" speed="13.90" length="8.50" width="4.70" shape="188.40,94.86 194.41,88.85"/>
    </edge>
    <edge id="508" from="508.501" to="516.508" priority="1" shape="209.90,96.55 259.34,146.00 260.23,146.88 260.93,147.59 261.64,148.29 262.36,148.99 263.07,149.69 263.79,150.38 264.52,151.07 265.25,151.76 265.99,152.43 266.73,153.10 267.48,153.76 273.16,158.26 281.61,163.58 290.67,167.81 300.18,170.88 310.00,172.74 319.97,173.36 329.95,172.73 339.76,170.86 349.27,167.79 358.32,163.55 366.77,158.21 374.49,151.87 381.36,144.61 387.27,136.55 392.13,127.82 395.87,118.55 398.41,108.88 399.74,98.98 399.81,97.73 399.87,96.73 399.91,95.73 399.94,94.73 399.96,93.73 399.98,92.73 399.99,91.73 400.00,90.73 400.00,89.73 400.00,88.73 400.00,87.73 400.00,86.66 400.00,85.58 400.00,84.33 400.00,83.33 399.99,82.33 399.99,81.33 399.97,80.33 399.95,79.33 399.93,78.33 399.90,77.33 399.85,76.33 399.80,75.33 399.74,74.33 398.90,67.14 396.69,57.39 393.28,48.00 388.72,39.10 383.09,30.85 376.48,23.36 368.98,16.75 360.72,11.13 351.82,6.58 342.42,3.18 332.67,0.97 322.73,0.00 312.74,0.28 302.86,1.79 293.25,4.53 284.05,8.45 275.42,13.48 267.48,19.55 266.54,20.37 265.80,21.05 265.07,21.72 264.34,22.41 263.61,23.10 262.89,23.79 262.18,24.49 261.47,25.20 260.76,25.90 260.05,26.61 259.34,27.31 209.90,76.76">
        <lane id="508_0" index="0" speed="13.90" length="529.99" width="4.70" shape="211.60,94.86 261.04,144.30 261.92,145.18 262.63,145.89 263.33,146.59 264.04,147.28 264.75,147.97 265.46,148.66 266.17,149.33 266.89,150.00 267.61,150.67 268.33,151.32 269.06,151.96 274.65,156.38 282.89,161.55 291.68,165.64 300.92,168.60 310.44,170.38 320.12,170.96 329.80,170.33 339.32,168.50 348.53,165.50 357.30,161.37 365.49,156.18 372.97,150.01 379.62,142.96 385.34,135.13 390.04,126.65 393.64,117.65 396.09,108.27 397.36,98.66 397.42,97.58 397.47,96.61 397.51,95.64 397.54,94.66 397.56,93.68 397.58,92.69 397.59,91.71 397.60,90.72 397.60,89.73 397.60,88.73 397.60,87.73 397.60,86.66 397.60,85.58 397.60,84.33 397.60,83.33 397.59,82.34 397.59,81.34 397.57,80.36 397.56,79.37 397.53,78.39 397.50,77.41 397.46,76.43 397.40,75.46 397.34,74.48 396.52,67.41 394.35,57.92 391.02,48.82 386.58,40.20 381.11,32.20 374.68,24.94 367.39,18.55 359.37,13.11 350.72,8.72 341.60,5.43 332.14,3.31 322.49,2.39 312.80,2.67 303.22,4.17 293.91,6.84 284.99,10.66 276.63,15.55 268.94,21.46 268.13,22.18 267.41,22.83 266.69,23.49 265.98,24.16 265.27,24.84 264.56,25.52 263.86,26.21 263.15,26.90 262.45,27.60 261.74,28.31 261.04,29.01 211.60,78.45"/>
    </edge>
    <edge id="509" from="509.502" to="514.509" priority="1" shape="190.10,96.55 140.66,146.00 139.77,146.88 139.07,147.59 138.36,148.29 137.64,148.99 136.93,149.69 136.21,150.38 135.48,151.07 134.75,151.76 134.01,152.43 133.27,153.10 132.52,153.76 126.84,158.26 118.39,163.58 109.33,167.81 99.82,170.88 90.00,172.74 80.03,173.36 70.05,172.73 60.24,170.86 50.73,167.79 41.68,163.55 33.23,158.21 25.51,151.87 18.64,144.61 12.73,136.55 7.87,127.82 4.13,118.55 1.59,108.88 0.26,98.98 0.19,97.73 0.13,96.73 0.09,95.73 0.06,94.73 0.04,93.73 0.02,92.73 0.01,91.73 0.00,90.73 0.00,89.73 0.00,88.73 0.00,87.73 0.00,86.66 0.00,85.58 0.00,84.33 0.00,83.33 0.01,82.33 0.01,81.33 0.03,80.33 0.05,79.33 0.07,78.33 0.10,77.33 0.15,76.33 0.20,75.33 0.26,74.33 1.10,67.14 3.31,57.39 6.72,48.00 11.28,39.10 16.91,30.85 23.52,23.36 31.02,16.75 39.28,11.13 48.18,6.58 57.58,3.18 67.33,0.97 77.27,0.00 87.26,0.28 97.14,1.79 106.75,4.53 115.95,8.45 124.58,13.48 132.52,19.55 133.46,20.37 134.20,21.05 134.93,21.72 135.66,22.41 136.39,23.10 137.11,23.79 137.82,24.49 138.53,25.20 139.24,25.90 139.95,26.61 140.66,27.31 190.10,76.76">
        <lane id="509_0" index="0" speed="13.90" length="552.55" width="4.70" shape="191.80,98.25 142.35,147.69 141.47,148.58 140.76,149.29 140.05,150.00 139.33,150.70 138.60,151.41 137.87,152.11 137.14,152.81 136.39,153.51 135.64,154.20 134.88,154.89 134.11,155.56 128.33,160.14 119.66,165.61 110.35,169.99 100.56,173.17 90.45,175.10 80.18,175.75 69.90,175.13 59.79,173.22 49.99,170.07 40.66,165.72 31.95,160.24 23.98,153.72 16.89,146.26 10.79,137.97 5.77,128.99 1.91,119.44 -0.73,109.50 -2.12,99.30 -2.21,97.88 -2.26,96.85 -2.30,95.83 -2.34,94.81 -2.36,93.79 -2.38,92.78 -2.39,91.76 -2.39,90.75 -2.40,89.74 -2.40,88.74 -2.40,87.74 -2.40,86.66 -2.40,85.58 -2.40,84.32 -2.40,83.32 -2.39,82.32 -2.39,81.31 -2.37,80.30 -2.35,79.28 -2.33,78.27 -2.29,77.25 -2.25,76.23 -2.20,75.20 -2.13,74.18 -1.28,66.86 0.97,56.86 4.47,47.18 9.14,38.01 14.93,29.49 21.73,21.77 29.44,14.95 37.93,9.14 47.09,4.44 56.76,0.92 66.80,-1.37 77.04,-2.39 87.33,-2.12 97.51,-0.58 107.41,2.23 116.89,6.24 125.79,11.41 133.98,17.64 135.05,18.57 135.81,19.27 136.56,19.96 137.31,20.66 138.04,21.36 138.77,22.07 139.50,22.78 140.22,23.49 140.93,24.20 141.65,24.91 142.35,25.62 191.80,75.06"/>
    </edge>
    <edge id="514" from="514.509" to="2" priority="1" shape="190.10,76.76 192.93,79.58">
        <lane id="514_0" index="0" speed="13.90" length="8.50" width="4.70" shape="191.80,75.06 197.81,81.07"/>
    </edge>
    <edge id="516" from="516.508" to="2" priority="1" shape="209.90,76.76 207.07,79.58">
        <lane id="516_0" index="0" speed="13.90" length="8.50" width="4.70" shape="211.60,78.45 205.59,84.46"/>
    </edge>

    <junction id="2" type="priority" x="200.00" y="86.66" incLanes="501_0 516_0 514_0 502_0" intLanes="" shape="201.06,93.37 206.38,88.05 206.72,85.59 201.40,80.27 198.94,79.94 193.62,85.26 193.28,87.72 198.60,93.04">
        <request index="0" response="000000000000" foes="000100010000"/>
        <request index="1" response="000000000000" foes="111100110000"/>
        <request index="2" response="000011000000" foes="110011110000"/>
        <request index="3" response="000010000000" foes="100010000000"/>
        <request index="4" response="000110000111" foes="100110000111"/>
        <request index="5" response="011110000110" foes="011110000110"/>
        <request index="6" response="000000000000" foes="010000000100"/>
        <request index="7" response="000000000000" foes="110000111100"/>
        <request index="8" response="000000000011" foes="110000110011"/>
        <request index="9" response="000000000010" foes="000000100010"/>
        <request index="10" response="000111000110" foes="000111100110"/>
        <request index="11" response="000110011110" foes="000110011110"/>
    </junction>
    <junction id="508.501" type="priority" x="209.90" y="96.55" incLanes="-508_0 -501_0" intLanes="" shape="207.41,99.05 212.73,93.73 212.39,94.06 207.07,99.38">
        <request index="0" response="00" foes="00"/>
        <request index="1" response="00" foes="00"/>
    </junction>
    <junction id="509.502" type="priority" x="190.10" y="96.55" incLanes="-502_0 -509_0" intLanes="" shape="192.59,99.05 187.27,93.73 187.61,94.06 192.93,99.38">
        <request index="0" response="00" foes="00"/>
        <request index="1" response="00" foes="00"/>
    </junction>
    <junction id="514.509" type="priority" x="190.10" y="76.76" incLanes="-514_0 509_0" intLanes="" shape="187.61,79.25 192.93,73.93 187.61,79.25">
        <request index="0" response="00" foes="00"/>
        <request index="1" response="00" foes="00"/>
    </junction>
    <junction id="516.508" type="priority" x="209.90" y="76.76" incLanes="508_0 -516_0" intLanes="" shape="212.73,79.58 207.41,74.26 212.73,79.58">
        <request index="0" response="00" foes="00"/>
        <request index="1" response="00" foes="00"/>
    </junction>

    <connection from="-501" to="508" fromLane="0" toLane="0" dir="s" state="M"/>
    <connection from="-502" to="509" fromLane="0" toLane="0" dir="s" state="M"/>
    <connection from="-508" to="501" fromLane="0" toLane="0" dir="s" state="M"/>
    <connection from="-509" to="502" fromLane="0" toLane="0" dir="s" state="M"/>
    <connection from="-514" to="-509" fromLane="0" toLane="0" dir="s" state="M"/>
    <connection from="-516" to="-508" fromLane="0" toLane="0" dir="s" state="M"/>
    <connection from="501" to="-502" fromLane="0" toLane="0" dir="r" state="M"/>
    <connection from="501" to="-514" fromLane="0" toLane="0" dir="s" state="M"/>
    <connection from="501" to="-516" fromLane="0" toLane="0" dir="l" state="m"/>
    <connection from="502" to="-514" fromLane="0" toLane="0" dir="r" state="m"/>
    <connection from="502" to="-516" fromLane="0" toLane="0" dir="s" state="m"/>
    <connection from="502" to="-501" fromLane="0" toLane="0" dir="l" state="m"/>
    <connection from="508" to="516" fromLane="0" toLane="0" dir="s" state="M"/>
    <connection from="509" to="514" fromLane="0" toLane="0" dir="s" state="M"/>
    <connection from="514" to="-516" fromLane="0" toLane="0" dir="r" state="M"/>
    <connection from="514" to="-501" fromLane="0" toLane="0" dir="s" state="M"/>
    <connection from="514" to="-502" fromLane="0" toLane="0" dir="l" state="m"/>
    <connection from="516" to="-501" fromLane="0" toLane="0" dir="r" state="m"/>
    <connection from="516" to="-502" fromLane="0" toLane="0" dir="s" state="m"/>
    <connection from="516" to="-514" fromLane="0" toLane="0" dir="l" state="m"/>

</net>
