<?xml version="1.0" encoding="UTF-8"?>

<!-- generated on Wed 29 Jan 2014 03:30:12 PM CET by Netedit Version dev-SVN-r15523
<?xml version="1.0" encoding="UTF-8"?>

<configuration xmlns:xsi="http://www.w3.org/2001/XMLSchema-instance" xsi:noNamespaceSchemaLocation="http://sumo-sim.org/xsd/netedit.exeConfiguration.xsd">

    <input>
        <sumo-net-file value="net4a.net.xml"/>
    </input>

    <output>
        <output-file value="net4a.net.xml"/>
        <plain-output-prefix value="/scr1/erdm_ja/sip-svn-trunk/projects/colombo/prototype4/plain4a"/>
    </output>

    <processing>
        <no-turnarounds value="true"/>
        <offset.disable-normalization value="true"/>
    </processing>

</configuration>
-->

<connections version="0.13">
    <connection from="CE" to="EC" fromLane="4" toLane="4"/>
    <connection from="CS" to="SC" fromLane="4" toLane="4"/>

    <connection from="EC" to="CN" fromLane="2" toLane="2"/>
    <connection from="EC" to="CW" fromLane="2" toLane="2"/>
    <connection from="EC" to="CN" fromLane="3" toLane="3"/>
    <connection from="EC" to="CW" fromLane="3" toLane="3"/>
    <connection from="EC" to="CW" fromLane="4" toLane="4"/>
    <connection from="EC" to="CS" fromLane="4" toLane="4"/>

    <connection from="NC" to="CW" fromLane="2" toLane="2"/>
    <connection from="NC" to="CS" fromLane="2" toLane="2"/>
    <connection from="NC" to="CW" fromLane="3" toLane="3"/>
    <connection from="NC" to="CS" fromLane="3" toLane="3"/>
    <connection from="NC" to="CS" fromLane="4" toLane="4"/>
    <connection from="NC" to="CE" fromLane="4" toLane="4"/>

    <connection from="SC" to="CE" fromLane="2" toLane="2"/>
    <connection from="SC" to="CN" fromLane="2" toLane="2"/>
    <connection from="SC" to="CE" fromLane="3" toLane="3"/>
    <connection from="SC" to="CN" fromLane="3" toLane="3"/>
    <connection from="SC" to="CN" fromLane="4" toLane="4"/>
    <connection from="SC" to="CW" fromLane="4" toLane="4"/>

    <connection from="WC" to="CS" fromLane="2" toLane="2"/>
    <connection from="WC" to="CE" fromLane="2" toLane="2"/>
    <connection from="WC" to="CS" fromLane="3" toLane="3"/>
    <connection from="WC" to="CE" fromLane="3" toLane="3"/>
    <connection from="WC" to="CE" fromLane="4" toLane="4"/>
    <connection from="WC" to="CN" fromLane="4" toLane="4"/>

    <crossing node="C" edges="NC CN" width="4.5"/>
    <crossing node="C" edges="SC CS" width="4.5"/>
    <crossing node="C" edges="EC CE" width="4.5"/>
    <crossing node="C" edges="WC CW" width="4.5"/>

</connections>
