<?xml version="1.0" encoding="UTF-8"?>

<!-- generated on 10/23/13 15:55:17 by SUMO netconvert Version dev-SVN-rUNKNOWN
<?xml version="1.0" encoding="UTF-8"?>

<configuration xmlns:xsi="http://www.w3.org/2001/XMLSchema-instance" xsi:noNamespaceSchemaLocation="http://sumo-sim.org/xsd/netconvertConfiguration.xsd">

    <input>
        <node-files value="nodes.nod.xml"/>
        <edge-files value="edges.edg.xml"/>
        <connection-files value="connections.con.xml"/>
    </input>

    <output>
        <output-file value="net.net.xml"/>
    </output>

    <report>
        <verbose value="true"/>
    </report>

</configuration>
-->

<net version="0.13" xmlns:xsi="http://www.w3.org/2001/XMLSchema-instance" xsi:noNamespaceSchemaLocation="http://sumo-sim.org/xsd/net_file.xsd">

    <location netOffset="0.00,1000.00" convBoundary="0.00,0.00,1000.00,1000.00" origBoundary="0.00,-1000.00,1000.00,0.00" projParameter="!"/>

    <edge id=":0/1_0" function="internal">
        <lane id=":0/1_0_0" index="0" speed="13.89" length="4.82" shape="0.00,501.65 -1.24,500.82 -1.65,500.00 -1.24,499.18 0.00,498.35"/>
    </edge>
    <edge id=":1/0_0" function="internal">
        <lane id=":1/0_0_0" index="0" speed="13.89" length="4.82" shape="501.65,1000.00 500.82,1001.24 500.00,1001.65 499.18,1001.24 498.35,1000.00"/>
    </edge>
    <edge id=":1/1_0" function="internal">
        <lane id=":1/1_0_0" index="0" speed="13.89" length="5.00" shape="491.75,511.35 491.56,509.99 490.98,509.02 490.01,508.44 488.65,508.25"/>
    </edge>
    <edge id=":1/1_1" function="internal">
        <lane id=":1/1_1_0" index="0" speed="13.89" length="31.61" shape="511.35,508.25 502.77,507.02 496.65,503.35 492.97,497.22 491.75,488.65"/>
    </edge>
    <edge id=":1/1_2" function="internal">
        <lane id=":1/1_2_0" index="0" speed="13.89" length="5.00" shape="508.25,488.65 508.44,490.01 509.02,490.98 509.99,491.56 511.35,491.75"/>
    </edge>
    <edge id=":1/1_3" function="internal">
        <lane id=":1/1_3_0" index="0" speed="13.89" length="31.61" shape="488.65,491.75 497.23,492.98 503.35,496.65 507.03,502.78 508.25,511.35"/>
    </edge>
    <edge id=":1/2_0" function="internal">
        <lane id=":1/2_0_0" index="0" speed="13.89" length="4.82" shape="498.35,0.00 499.18,-1.24 500.00,-1.65 500.82,-1.24 501.65,0.00"/>
    </edge>
    <edge id=":2/1_0" function="internal">
        <lane id=":2/1_0_0" index="0" speed="13.89" length="4.82" shape="1000.00,498.35 1001.24,499.18 1001.65,500.00 1001.24,500.82 1000.00,501.65"/>
    </edge>

    <edge id="0/1_to_1/1" from="0/1" to="1/1" priority="-1">
        <lane id="0/1_to_1/1_0" index="0" speed="13.89" length="488.65" shape="0.00,491.75 488.65,491.75"/>
        <lane id="0/1_to_1/1_1" index="1" speed="13.89" length="488.65" shape="0.00,495.05 488.65,495.05"/>
        <lane id="0/1_to_1/1_2" index="2" speed="13.89" length="488.65" shape="0.00,498.35 488.65,498.35"/>
    </edge>
    <edge id="1/0_to_1/1" from="1/0" to="1/1" priority="-1">
        <lane id="1/0_to_1/1_0" index="0" speed="13.89" length="488.65" shape="491.75,1000.00 491.75,511.35"/>
        <lane id="1/0_to_1/1_1" index="1" speed="13.89" length="488.65" shape="495.05,1000.00 495.05,511.35"/>
        <lane id="1/0_to_1/1_2" index="2" speed="13.89" length="488.65" shape="498.35,1000.00 498.35,511.35"/>
    </edge>
    <edge id="1/1_to_0/1" from="1/1" to="0/1" priority="-1">
        <lane id="1/1_to_0/1_0" index="0" speed="13.89" length="488.65" shape="488.65,508.25 0.00,508.25"/>
        <lane id="1/1_to_0/1_1" index="1" speed="13.89" length="488.65" shape="488.65,504.95 0.00,504.95"/>
        <lane id="1/1_to_0/1_2" index="2" speed="13.89" length="488.65" shape="488.65,501.65 0.00,501.65"/>
    </edge>
    <edge id="1/1_to_1/0" from="1/1" to="1/0" priority="-1">
        <lane id="1/1_to_1/0_0" index="0" speed="13.89" length="488.65" shape="508.25,511.35 508.25,1000.00"/>
        <lane id="1/1_to_1/0_1" index="1" speed="13.89" length="488.65" shape="504.95,511.35 504.95,1000.00"/>
        <lane id="1/1_to_1/0_2" index="2" speed="13.89" length="488.65" shape="501.65,511.35 501.65,1000.00"/>
    </edge>
    <edge id="1/1_to_1/2" from="1/1" to="1/2" priority="-1">
        <lane id="1/1_to_1/2_0" index="0" speed="13.89" length="488.65" shape="491.75,488.65 491.75,0.00"/>
        <lane id="1/1_to_1/2_1" index="1" speed="13.89" length="488.65" shape="495.05,488.65 495.05,0.00"/>
        <lane id="1/1_to_1/2_2" index="2" speed="13.89" length="488.65" shape="498.35,488.65 498.35,0.00"/>
    </edge>
    <edge id="1/1_to_2/1" from="1/1" to="2/1" priority="-1">
        <lane id="1/1_to_2/1_0" index="0" speed="13.89" length="488.65" shape="511.35,491.75 1000.00,491.75"/>
        <lane id="1/1_to_2/1_1" index="1" speed="13.89" length="488.65" shape="511.35,495.05 1000.00,495.05"/>
        <lane id="1/1_to_2/1_2" index="2" speed="13.89" length="488.65" shape="511.35,498.35 1000.00,498.35"/>
    </edge>
    <edge id="1/2_to_1/1" from="1/2" to="1/1" priority="-1">
        <lane id="1/2_to_1/1_0" index="0" speed="13.89" length="488.65" shape="508.25,0.00 508.25,488.65"/>
        <lane id="1/2_to_1/1_1" index="1" speed="13.89" length="488.65" shape="504.95,0.00 504.95,488.65"/>
        <lane id="1/2_to_1/1_2" index="2" speed="13.89" length="488.65" shape="501.65,0.00 501.65,488.65"/>
    </edge>
    <edge id="2/1_to_1/1" from="2/1" to="1/1" priority="-1">
        <lane id="2/1_to_1/1_0" index="0" speed="13.89" length="488.65" shape="1000.00,508.25 511.35,508.25"/>
        <lane id="2/1_to_1/1_1" index="1" speed="13.89" length="488.65" shape="1000.00,504.95 511.35,504.95"/>
        <lane id="2/1_to_1/1_2" index="2" speed="13.89" length="488.65" shape="1000.00,501.65 511.35,501.65"/>
    </edge>

    <tlLogic id="1/1" type="static" programID="0" offset="0">
        <phase duration="31" state="GGGG"/>
        <phase duration="4" state="yyyy"/>
        <phase duration="31" state="GGGG"/>
        <phase duration="4" state="yyyy"/>
    </tlLogic>

    <junction id="0/1" type="priority" x="0.00" y="500.00" incLanes="1/1_to_0/1_0 1/1_to_0/1_1 1/1_to_0/1_2" intLanes=":0/1_0_0" shape="-0.00,499.95 -0.00,490.15 0.00,509.85 0.00,500.05">
        <request index="0" response="0" foes="0" cont="0"/>
    </junction>
    <junction id="1/0" type="priority" x="500.00" y="1000.00" incLanes="1/1_to_1/0_0 1/1_to_1/0_1 1/1_to_1/0_2" intLanes=":1/0_0_0" shape="499.95,1000.00 490.15,1000.00 509.85,1000.00 500.05,1000.00">
        <request index="0" response="0" foes="0" cont="0"/>
    </junction>
    <junction id="1/1" type="traffic_light" x="500.00" y="500.00" incLanes="1/0_to_1/1_0 1/0_to_1/1_1 1/0_to_1/1_2 2/1_to_1/1_0 2/1_to_1/1_1 2/1_to_1/1_2 1/2_to_1/1_0 1/2_to_1/1_1 1/2_to_1/1_2 0/1_to_1/1_0 0/1_to_1/1_1 0/1_to_1/1_2" intLanes=":1/1_0_0 :1/1_1_0 :1/1_2_0 :1/1_3_0" shape="490.15,511.35 509.85,511.35 511.35,509.85 511.35,490.15 509.85,488.65 490.15,488.65 488.65,490.15 488.65,509.85">
        <request index="0" response="0000" foes="0000" cont="0"/>
        <request index="1" response="0000" foes="0000" cont="0"/>
        <request index="2" response="0000" foes="0000" cont="0"/>
        <request index="3" response="0000" foes="0000" cont="0"/>
    </junction>
    <junction id="1/2" type="priority" x="500.00" y="0.00" incLanes="1/1_to_1/2_0 1/1_to_1/2_1 1/1_to_1/2_2" intLanes=":1/2_0_0" shape="500.05,-0.00 509.85,-0.00 490.15,0.00 499.95,0.00">
        <request index="0" response="0" foes="0" cont="0"/>
    </junction>
    <junction id="2/1" type="priority" x="1000.00" y="500.00" incLanes="1/1_to_2/1_0 1/1_to_2/1_1 1/1_to_2/1_2" intLanes=":2/1_0_0" shape="1000.00,500.05 1000.00,509.85 1000.00,490.15 1000.00,499.95">
        <request index="0" response="0" foes="0" cont="0"/>
    </junction>

    <connection from="0/1_to_1/1" to="1/1_to_1/0" fromLane="0" toLane="0" via=":1/1_3_0" tl="1/1" linkIndex="3" dir="l" state="o"/>
    <connection from="1/0_to_1/1" to="1/1_to_0/1" fromLane="0" toLane="0" via=":1/1_0_0" tl="1/1" linkIndex="0" dir="r" state="o"/>
    <connection from="1/1_to_0/1" to="0/1_to_1/1" fromLane="2" toLane="2" via=":0/1_0_0" dir="t" state="M"/>
    <connection from="1/1_to_1/0" to="1/0_to_1/1" fromLane="2" toLane="2" via=":1/0_0_0" dir="t" state="M"/>
    <connection from="1/1_to_1/2" to="1/2_to_1/1" fromLane="2" toLane="2" via=":1/2_0_0" dir="t" state="M"/>
    <connection from="1/1_to_2/1" to="2/1_to_1/1" fromLane="2" toLane="2" via=":2/1_0_0" dir="t" state="M"/>
    <connection from="1/2_to_1/1" to="1/1_to_2/1" fromLane="0" toLane="0" via=":1/1_2_0" tl="1/1" linkIndex="2" dir="r" state="o"/>
    <connection from="2/1_to_1/1" to="1/1_to_1/2" fromLane="0" toLane="0" via=":1/1_1_0" tl="1/1" linkIndex="1" dir="l" state="o"/>

    <connection from=":0/1_0" to="0/1_to_1/1" fromLane="0" toLane="2" dir="s" state="M"/>
    <connection from=":1/0_0" to="1/0_to_1/1" fromLane="0" toLane="2" dir="s" state="M"/>
    <connection from=":1/1_0" to="1/1_to_0/1" fromLane="0" toLane="0" dir="s" state="M"/>
    <connection from=":1/1_1" to="1/1_to_1/2" fromLane="0" toLane="0" dir="s" state="M"/>
    <connection from=":1/1_2" to="1/1_to_2/1" fromLane="0" toLane="0" dir="s" state="M"/>
    <connection from=":1/1_3" to="1/1_to_1/0" fromLane="0" toLane="0" dir="s" state="M"/>
    <connection from=":1/2_0" to="1/2_to_1/1" fromLane="0" toLane="2" dir="s" state="M"/>
    <connection from=":2/1_0" to="2/1_to_1/1" fromLane="0" toLane="2" dir="s" state="M"/>

</net>
