<?xml version="1.0" encoding="UTF-8"?>

<!-- generated on 06/19/14 13:41:01 by SUMO sumo Version dev-SVN-r16606
<?xml version="1.0" encoding="UTF-8"?>

<configuration xmlns:xsi="http://www.w3.org/2001/XMLSchema-instance" xsi:noNamespaceSchemaLocation="http://sumo-sim.org/xsd/sumoConfiguration.xsd">

    <input>
        <net-file value="net.net.xml"/>
        <route-files value="input_routes.rou.xml"/>
        <additional-files value="input_additional.add.xml"/>
    </input>

    <output>
        <tripinfo-output value="tripinfos.xml"/>
    </output>

    <time>
        <end value="140"/>
    </time>

    <processing>
        <pedestrian.model value="nonInteracting"/>
    </processing>

    <report>
        <verbose value="true"/>
        <xml-validation value="never"/>
        <no-step-log value="true"/>
    </report>

</configuration>
-->

<vehicle-type-probes>
    <timestep time="0.00" id="probe1" vType="">
        <vehicle id="bus.0" lane="1/4to1/3_0" pos="0.00" x="98.35" y="395.25" speed="0.00" personNumber="0"/>
    </timestep>
    <timestep time="1.00" id="probe1" vType="">
        <vehicle id="bus.0" lane="1/4to1/3_0" pos="2.60" x="98.35" y="392.65" speed="2.60" personNumber="0"/>
    </timestep>
    <timestep time="2.00" id="probe1" vType="">
        <vehicle id="bus.0" lane="1/4to1/3_0" pos="7.80" x="98.35" y="387.45" speed="5.20" personNumber="0"/>
    </timestep>
    <timestep time="3.00" id="probe1" vType="">
        <vehicle id="bus.0" lane="1/4to1/3_0" pos="15.60" x="98.35" y="379.65" speed="7.80" personNumber="0"/>
    </timestep>
    <timestep time="4.00" id="probe1" vType="">
        <vehicle id="bus.0" lane="1/4to1/3_0" pos="26.00" x="98.35" y="369.25" speed="10.40" personNumber="0"/>
    </timestep>
    <timestep time="5.00" id="probe1" vType="">
        <vehicle id="bus.0" lane="1/4to1/3_0" pos="39.00" x="98.35" y="356.25" speed="13.00" personNumber="0"/>
    </timestep>
    <timestep time="6.00" id="probe1" vType="">
        <vehicle id="bus.0" lane="1/4to1/3_0" pos="52.90" x="98.35" y="342.35" speed="13.90" personNumber="0"/>
    </timestep>
    <timestep time="7.00" id="probe1" vType="">
        <vehicle id="bus.0" lane="1/4to1/3_0" pos="66.80" x="98.35" y="328.45" speed="13.90" personNumber="0"/>
    </timestep>
    <timestep time="8.00" id="probe1" vType="">
        <vehicle id="bus.0" lane="1/4to1/3_0" pos="80.70" x="98.35" y="314.55" speed="13.90" personNumber="0"/>
    </timestep>
    <timestep time="9.00" id="probe1" vType="">
        <vehicle id="bus.0" lane=":1/3_0_0" pos="4.10" x="96.14" y="301.77" speed="13.90" personNumber="0"/>
    </timestep>
    <timestep time="10.00" id="probe1" vType="">
        <vehicle id="bus.0" lane="1/3to0/3_0" pos="13.00" x="82.25" y="301.65" speed="13.90" personNumber="0"/>
    </timestep>
    <timestep time="11.00" id="probe1" vType="">
        <vehicle id="bus.0" lane="1/3to0/3_0" pos="26.90" x="68.35" y="301.65" speed="13.90" personNumber="0"/>
    </timestep>
    <timestep time="12.00" id="probe1" vType="">
        <vehicle id="bus.0" lane="1/3to0/3_0" pos="40.80" x="54.45" y="301.65" speed="13.90" personNumber="0"/>
    </timestep>
    <timestep time="13.00" id="probe1" vType="">
        <vehicle id="bus.0" lane="1/3to0/3_0" pos="51.70" x="43.55" y="301.65" speed="10.90" personNumber="0"/>
    </timestep>
    <timestep time="14.00" id="probe1" vType="">
        <vehicle id="bus.0" lane="1/3to0/3_0" pos="58.10" x="37.15" y="301.65" speed="6.40" personNumber="0"/>
    </timestep>
    <timestep time="15.00" id="probe1" vType="">
        <vehicle id="bus.0" lane="1/3to0/3_0" pos="60.00" x="35.25" y="301.65" speed="1.90" personNumber="0"/>
    </timestep>
    <timestep time="16.00" id="probe1" vType="">
        <vehicle id="bus.0" lane="1/3to0/3_0" pos="60.00" x="35.25" y="301.65" speed="0.00" personNumber="0"/>
    </timestep>
    <timestep time="17.00" id="probe1" vType="">
        <vehicle id="bus.0" lane="1/3to0/3_0" pos="60.00" x="35.25" y="301.65" speed="0.00" personNumber="0"/>
    </timestep>
    <timestep time="18.00" id="probe1" vType="">
        <vehicle id="bus.0" lane="1/3to0/3_0" pos="60.00" x="35.25" y="301.65" speed="0.00" personNumber="0"/>
    </timestep>
    <timestep time="19.00" id="probe1" vType="">
        <vehicle id="bus.0" lane="1/3to0/3_0" pos="60.00" x="35.25" y="301.65" speed="0.00" personNumber="0"/>
    </timestep>
    <timestep time="20.00" id="probe1" vType="">
        <vehicle id="bus.0" lane="1/3to0/3_0" pos="60.00" x="35.25" y="301.65" speed="0.00" personNumber="0"/>
    </timestep>
    <timestep time="21.00" id="probe1" vType="">
        <vehicle id="bus.0" lane="1/3to0/3_0" pos="60.00" x="35.25" y="301.65" speed="0.00" personNumber="0"/>
    </timestep>
    <timestep time="22.00" id="probe1" vType="">
        <vehicle id="bus.0" lane="1/3to0/3_0" pos="60.00" x="35.25" y="301.65" speed="0.00" personNumber="0"/>
    </timestep>
    <timestep time="23.00" id="probe1" vType="">
        <vehicle id="bus.0" lane="1/3to0/3_0" pos="60.00" x="35.25" y="301.65" speed="0.00" personNumber="0"/>
    </timestep>
    <timestep time="24.00" id="probe1" vType="">
        <vehicle id="bus.0" lane="1/3to0/3_0" pos="60.00" x="35.25" y="301.65" speed="0.00" personNumber="0"/>
    </timestep>
    <timestep time="25.00" id="probe1" vType="">
        <vehicle id="bus.0" lane="1/3to0/3_0" pos="60.00" x="35.25" y="301.65" speed="0.00" personNumber="0"/>
    </timestep>
    <timestep time="26.00" id="probe1" vType="">
        <vehicle id="bus.0" lane="1/3to0/3_0" pos="60.00" x="35.25" y="301.65" speed="0.00" personNumber="0"/>
    </timestep>
    <timestep time="27.00" id="probe1" vType="">
        <vehicle id="bus.0" lane="1/3to0/3_0" pos="60.00" x="35.25" y="301.65" speed="0.00" personNumber="0"/>
    </timestep>
    <timestep time="28.00" id="probe1" vType="">
        <vehicle id="bus.0" lane="1/3to0/3_0" pos="60.00" x="35.25" y="301.65" speed="0.00" personNumber="0"/>
    </timestep>
    <timestep time="29.00" id="probe1" vType="">
        <vehicle id="bus.0" lane="1/3to0/3_0" pos="60.00" x="35.25" y="301.65" speed="0.00" personNumber="0"/>
    </timestep>
    <timestep time="30.00" id="probe1" vType="">
        <vehicle id="bus.0" lane="1/3to0/3_0" pos="60.00" x="35.25" y="301.65" speed="0.00" personNumber="0"/>
    </timestep>
    <timestep time="31.00" id="probe1" vType="">
        <vehicle id="bus.0" lane="1/3to0/3_0" pos="60.00" x="35.25" y="301.65" speed="0.00" personNumber="0"/>
    </timestep>
    <timestep time="32.00" id="probe1" vType="">
        <vehicle id="bus.0" lane="1/3to0/3_0" pos="60.00" x="35.25" y="301.65" speed="0.00" personNumber="0"/>
    </timestep>
    <timestep time="33.00" id="probe1" vType="">
        <vehicle id="bus.0" lane="1/3to0/3_0" pos="60.00" x="35.25" y="301.65" speed="0.00" personNumber="0"/>
    </timestep>
    <timestep time="34.00" id="probe1" vType="">
        <vehicle id="bus.0" lane="1/3to0/3_0" pos="60.00" x="35.25" y="301.65" speed="0.00" personNumber="0"/>
    </timestep>
    <timestep time="35.00" id="probe1" vType="">
        <vehicle id="bus.0" lane="1/3to0/3_0" pos="60.00" x="35.25" y="301.65" speed="0.00" personNumber="0"/>
    </timestep>
    <timestep time="36.00" id="probe1" vType="">
        <vehicle id="bus.0" lane="1/3to0/3_0" pos="60.00" x="35.25" y="301.65" speed="0.00" personNumber="0"/>
    </timestep>
    <timestep time="37.00" id="probe1" vType="">
        <vehicle id="bus.0" lane="1/3to0/3_0" pos="60.00" x="35.25" y="301.65" speed="0.00" personNumber="0"/>
    </timestep>
    <timestep time="38.00" id="probe1" vType="">
        <vehicle id="bus.0" lane="1/3to0/3_0" pos="60.00" x="35.25" y="301.65" speed="0.00" personNumber="0"/>
    </timestep>
    <timestep time="39.00" id="probe1" vType="">
        <vehicle id="bus.0" lane="1/3to0/3_0" pos="60.00" x="35.25" y="301.65" speed="0.00" personNumber="0"/>
    </timestep>
    <timestep time="40.00" id="probe1" vType="">
        <vehicle id="bus.0" lane="1/3to0/3_0" pos="60.00" x="35.25" y="301.65" speed="0.00" personNumber="0"/>
    </timestep>
    <timestep time="41.00" id="probe1" vType="">
        <vehicle id="bus.0" lane="1/3to0/3_0" pos="60.00" x="35.25" y="301.65" speed="0.00" personNumber="0"/>
    </timestep>
    <timestep time="42.00" id="probe1" vType="">
        <vehicle id="bus.0" lane="1/3to0/3_0" pos="60.00" x="35.25" y="301.65" speed="0.00" personNumber="0"/>
    </timestep>
    <timestep time="43.00" id="probe1" vType="">
        <vehicle id="bus.0" lane="1/3to0/3_0" pos="60.00" x="35.25" y="301.65" speed="0.00" personNumber="0"/>
    </timestep>
    <timestep time="44.00" id="probe1" vType="">
        <vehicle id="bus.0" lane="1/3to0/3_0" pos="60.00" x="35.25" y="301.65" speed="0.00" personNumber="0"/>
    </timestep>
    <timestep time="45.00" id="probe1" vType="">
        <vehicle id="bus.0" lane="1/3to0/3_0" pos="60.00" x="35.25" y="301.65" speed="0.00" personNumber="0"/>
    </timestep>
    <timestep time="46.00" id="probe1" vType="">
        <vehicle id="bus.0" lane="1/3to0/3_0" pos="60.00" x="35.25" y="301.65" speed="0.00" personNumber="0"/>
    </timestep>
    <timestep time="47.00" id="probe1" vType="">
        <vehicle id="bus.0" lane="1/3to0/3_0" pos="60.00" x="35.25" y="301.65" speed="0.00" personNumber="1"/>
    </timestep>
    <timestep time="48.00" id="probe1" vType="">
        <vehicle id="bus.0" lane="1/3to0/3_0" pos="60.00" x="35.25" y="301.65" speed="0.00" personNumber="1"/>
    </timestep>
    <timestep time="49.00" id="probe1" vType="">
        <vehicle id="bus.0" lane="1/3to0/3_0" pos="60.00" x="35.25" y="301.65" speed="0.00" personNumber="1"/>
    </timestep>
    <timestep time="50.00" id="probe1" vType="">
        <vehicle id="bus.0" lane="1/3to0/3_0" pos="60.00" x="35.25" y="301.65" speed="0.00" personNumber="1"/>
    </timestep>
    <timestep time="51.00" id="probe1" vType="">
        <vehicle id="bus.0" lane="1/3to0/3_0" pos="60.00" x="35.25" y="301.65" speed="0.00" personNumber="1"/>
    </timestep>
    <timestep time="52.00" id="probe1" vType="">
        <vehicle id="bus.0" lane="1/3to0/3_0" pos="60.00" x="35.25" y="301.65" speed="0.00" personNumber="1"/>
    </timestep>
    <timestep time="53.00" id="probe1" vType="">
        <vehicle id="bus.0" lane="1/3to0/3_0" pos="60.00" x="35.25" y="301.65" speed="0.00" personNumber="1"/>
    </timestep>
    <timestep time="54.00" id="probe1" vType="">
        <vehicle id="bus.0" lane="1/3to0/3_0" pos="60.00" x="35.25" y="301.65" speed="0.00" personNumber="1"/>
    </timestep>
    <timestep time="55.00" id="probe1" vType="">
        <vehicle id="bus.0" lane="1/3to0/3_0" pos="60.00" x="35.25" y="301.65" speed="0.00" personNumber="1"/>
    </timestep>
    <timestep time="56.00" id="probe1" vType="">
        <vehicle id="bus.0" lane="1/3to0/3_0" pos="60.00" x="35.25" y="301.65" speed="0.00" personNumber="1"/>
    </timestep>
    <timestep time="57.00" id="probe1" vType="">
        <vehicle id="bus.0" lane="1/3to0/3_0" pos="60.00" x="35.25" y="301.65" speed="0.00" personNumber="1"/>
    </timestep>
    <timestep time="58.00" id="probe1" vType="">
        <vehicle id="bus.0" lane="1/3to0/3_0" pos="60.00" x="35.25" y="301.65" speed="0.00" personNumber="1"/>
    </timestep>
    <timestep time="59.00" id="probe1" vType="">
        <vehicle id="bus.0" lane="1/3to0/3_0" pos="60.00" x="35.25" y="301.65" speed="0.00" personNumber="1"/>
    </timestep>
    <timestep time="60.00" id="probe1" vType="">
        <vehicle id="bus.0" lane="1/3to0/3_0" pos="60.00" x="35.25" y="301.65" speed="0.00" personNumber="1"/>
    </timestep>
    <timestep time="61.00" id="probe1" vType="">
        <vehicle id="bus.0" lane="1/3to0/3_0" pos="60.00" x="35.25" y="301.65" speed="0.00" personNumber="1"/>
    </timestep>
    <timestep time="62.00" id="probe1" vType="">
        <vehicle id="bus.0" lane="1/3to0/3_0" pos="60.00" x="35.25" y="301.65" speed="0.00" personNumber="1"/>
    </timestep>
    <timestep time="63.00" id="probe1" vType="">
        <vehicle id="bus.0" lane="1/3to0/3_0" pos="60.00" x="35.25" y="301.65" speed="0.00" personNumber="1"/>
    </timestep>
    <timestep time="64.00" id="probe1" vType="">
        <vehicle id="bus.0" lane="1/3to0/3_0" pos="60.00" x="35.25" y="301.65" speed="0.00" personNumber="1"/>
    </timestep>
    <timestep time="65.00" id="probe1" vType="">
        <vehicle id="bus.0" lane="1/3to0/3_0" pos="60.00" x="35.25" y="301.65" speed="0.00" personNumber="1"/>
    </timestep>
    <timestep time="66.00" id="probe1" vType="">
        <vehicle id="bus.0" lane="1/3to0/3_0" pos="60.00" x="35.25" y="301.65" speed="0.00" personNumber="1"/>
    </timestep>
    <timestep time="67.00" id="probe1" vType="">
        <vehicle id="bus.0" lane="1/3to0/3_0" pos="62.60" x="32.65" y="301.65" speed="2.60" personNumber="1"/>
    </timestep>
    <timestep time="68.00" id="probe1" vType="">
        <vehicle id="bus.0" lane="1/3to0/3_0" pos="67.80" x="27.45" y="301.65" speed="5.20" personNumber="1"/>
    </timestep>
    <timestep time="69.00" id="probe1" vType="">
        <vehicle id="bus.0" lane="1/3to0/3_0" pos="75.60" x="19.65" y="301.65" speed="7.80" personNumber="1"/>
    </timestep>
    <timestep time="70.00" id="probe1" vType="">
        <vehicle id="bus.0" lane="1/3to0/3_0" pos="85.03" x="10.22" y="301.65" speed="9.43" personNumber="1"/>
    </timestep>
    <timestep time="71.00" id="probe1" vType="">
        <vehicle id="bus.0" lane="1/3to0/3_0" pos="89.97" x="5.28" y="301.65" speed="4.93" personNumber="1"/>
    </timestep>
    <timestep time="72.00" id="probe1" vType="">
        <vehicle id="bus.0" lane="0/3to0/4_0" pos="2.00" x="1.65" y="306.75" speed="7.53" personNumber="1"/>
    </timestep>
    <timestep time="73.00" id="probe1" vType="">
        <vehicle id="bus.0" lane="0/3to0/4_0" pos="12.13" x="1.65" y="316.88" speed="10.13" personNumber="1"/>
    </timestep>
    <timestep time="74.00" id="probe1" vType="">
        <vehicle id="bus.0" lane="0/3to0/4_0" pos="24.87" x="1.65" y="329.62" speed="12.73" personNumber="1"/>
    </timestep>
    <timestep time="75.00" id="probe1" vType="">
        <vehicle id="bus.0" lane="0/3to0/4_0" pos="38.77" x="1.65" y="343.52" speed="13.90" personNumber="1"/>
    </timestep>
    <timestep time="76.00" id="probe1" vType="">
        <vehicle id="bus.0" lane="0/3to0/4_0" pos="52.67" x="1.65" y="357.42" speed="13.90" personNumber="1"/>
    </timestep>
    <timestep time="77.00" id="probe1" vType="">
        <vehicle id="bus.0" lane="0/3to0/4_0" pos="66.57" x="1.65" y="371.32" speed="13.90" personNumber="1"/>
    </timestep>
    <timestep time="78.00" id="probe1" vType="">
        <vehicle id="bus.0" lane="0/3to0/4_0" pos="80.47" x="1.65" y="385.22" speed="13.90" personNumber="1"/>
    </timestep>
    <timestep time="79.00" id="probe1" vType="">
        <vehicle id="bus.0" lane=":0/4_2_0" pos="2.37" x="3.04" y="398.32" speed="13.90" personNumber="1"/>
    </timestep>
    <timestep time="80.00" id="probe1" vType="">
        <vehicle id="bus.0" lane="0/4to1/4_0" pos="13.69" x="16.94" y="398.35" speed="13.90" personNumber="1"/>
    </timestep>
    <timestep time="81.00" id="probe1" vType="">
        <vehicle id="bus.0" lane="0/4to1/4_0" pos="27.59" x="30.84" y="398.35" speed="13.90" personNumber="1"/>
    </timestep>
    <timestep time="82.00" id="probe1" vType="">
        <vehicle id="bus.0" lane="0/4to1/4_0" pos="41.49" x="44.74" y="398.35" speed="13.90" personNumber="1"/>
    </timestep>
    <timestep time="83.00" id="probe1" vType="">
        <vehicle id="bus.0" lane="0/4to1/4_0" pos="52.16" x="55.41" y="398.35" speed="10.67" personNumber="1"/>
    </timestep>
    <timestep time="84.00" id="probe1" vType="">
        <vehicle id="bus.0" lane="0/4to1/4_0" pos="58.33" x="61.58" y="398.35" speed="6.17" personNumber="1"/>
    </timestep>
    <timestep time="85.00" id="probe1" vType="">
        <vehicle id="bus.0" lane="0/4to1/4_0" pos="60.00" x="63.25" y="398.35" speed="1.67" personNumber="0"/>
    </timestep>
    <timestep time="86.00" id="probe1" vType="">
        <vehicle id="bus.0" lane="0/4to1/4_0" pos="60.00" x="63.25" y="398.35" speed="0.00" personNumber="0"/>
    </timestep>
    <timestep time="87.00" id="probe1" vType="">
        <vehicle id="bus.0" lane="0/4to1/4_0" pos="60.00" x="63.25" y="398.35" speed="0.00" personNumber="0"/>
    </timestep>
    <timestep time="88.00" id="probe1" vType="">
        <vehicle id="bus.0" lane="0/4to1/4_0" pos="60.00" x="63.25" y="398.35" speed="0.00" personNumber="0"/>
    </timestep>
    <timestep time="89.00" id="probe1" vType="">
        <vehicle id="bus.0" lane="0/4to1/4_0" pos="60.00" x="63.25" y="398.35" speed="0.00" personNumber="0"/>
    </timestep>
    <timestep time="90.00" id="probe1" vType="">
        <vehicle id="bus.0" lane="0/4to1/4_0" pos="60.00" x="63.25" y="398.35" speed="0.00" personNumber="0"/>
    </timestep>
    <timestep time="91.00" id="probe1" vType="">
        <vehicle id="bus.0" lane="0/4to1/4_0" pos="60.00" x="63.25" y="398.35" speed="0.00" personNumber="0"/>
    </timestep>
    <timestep time="92.00" id="probe1" vType="">
        <vehicle id="bus.0" lane="0/4to1/4_0" pos="60.00" x="63.25" y="398.35" speed="0.00" personNumber="0"/>
    </timestep>
    <timestep time="93.00" id="probe1" vType="">
        <vehicle id="bus.0" lane="0/4to1/4_0" pos="60.00" x="63.25" y="398.35" speed="0.00" personNumber="0"/>
    </timestep>
    <timestep time="94.00" id="probe1" vType="">
        <vehicle id="bus.0" lane="0/4to1/4_0" pos="60.00" x="63.25" y="398.35" speed="0.00" personNumber="0"/>
    </timestep>
    <timestep time="95.00" id="probe1" vType="">
        <vehicle id="bus.0" lane="0/4to1/4_0" pos="60.00" x="63.25" y="398.35" speed="0.00" personNumber="0"/>
    </timestep>
    <timestep time="96.00" id="probe1" vType="">
        <vehicle id="bus.0" lane="0/4to1/4_0" pos="60.00" x="63.25" y="398.35" speed="0.00" personNumber="0"/>
    </timestep>
    <timestep time="97.00" id="probe1" vType="">
        <vehicle id="bus.0" lane="0/4to1/4_0" pos="60.00" x="63.25" y="398.35" speed="0.00" personNumber="0"/>
    </timestep>
    <timestep time="98.00" id="probe1" vType="">
        <vehicle id="bus.0" lane="0/4to1/4_0" pos="60.00" x="63.25" y="398.35" speed="0.00" personNumber="0"/>
    </timestep>
    <timestep time="99.00" id="probe1" vType="">
        <vehicle id="bus.0" lane="0/4to1/4_0" pos="60.00" x="63.25" y="398.35" speed="0.00" personNumber="0"/>
    </timestep>
    <timestep time="100.00" id="probe1" vType="">
        <vehicle id="bus.0" lane="0/4to1/4_0" pos="60.00" x="63.25" y="398.35" speed="0.00" personNumber="0"/>
    </timestep>
    <timestep time="101.00" id="probe1" vType="">
        <vehicle id="bus.0" lane="0/4to1/4_0" pos="60.00" x="63.25" y="398.35" speed="0.00" personNumber="0"/>
    </timestep>
    <timestep time="102.00" id="probe1" vType="">
        <vehicle id="bus.0" lane="0/4to1/4_0" pos="60.00" x="63.25" y="398.35" speed="0.00" personNumber="0"/>
    </timestep>
    <timestep time="103.00" id="probe1" vType="">
        <vehicle id="bus.0" lane="0/4to1/4_0" pos="60.00" x="63.25" y="398.35" speed="0.00" personNumber="0"/>
    </timestep>
    <timestep time="104.00" id="probe1" vType="">
        <vehicle id="bus.0" lane="0/4to1/4_0" pos="60.00" x="63.25" y="398.35" speed="0.00" personNumber="0"/>
    </timestep>
    <timestep time="105.00" id="probe1" vType="">
        <vehicle id="bus.0" lane="0/4to1/4_0" pos="60.00" x="63.25" y="398.35" speed="0.00" personNumber="0"/>
    </timestep>
    <timestep time="106.00" id="probe1" vType="">
        <vehicle id="bus.0" lane="0/4to1/4_0" pos="60.00" x="63.25" y="398.35" speed="0.00" personNumber="0"/>
    </timestep>
    <timestep time="107.00" id="probe1" vType="">
        <vehicle id="bus.0" lane="0/4to1/4_0" pos="62.60" x="65.85" y="398.35" speed="2.60" personNumber="0"/>
    </timestep>
    <timestep time="108.00" id="probe1" vType="">
        <vehicle id="bus.0" lane="0/4to1/4_0" pos="67.80" x="71.05" y="398.35" speed="5.20" personNumber="0"/>
    </timestep>
    <timestep time="109.00" id="probe1" vType="">
        <vehicle id="bus.0" lane="0/4to1/4_0" pos="75.60" x="78.85" y="398.35" speed="7.80" personNumber="0"/>
    </timestep>
    <timestep time="110.00" id="probe1" vType="">
        <vehicle id="bus.0" lane="0/4to1/4_0" pos="86.00" x="89.25" y="398.35" speed="10.40" personNumber="0"/>
    </timestep>
    <timestep time="111.00" id="probe1" vType="">
        <vehicle id="bus.0" lane="1/4to1/3_0" pos="2.00" x="98.35" y="393.25" speed="13.00" personNumber="0"/>
    </timestep>
    <timestep time="112.00" id="probe1" vType="">
        <vehicle id="bus.0" lane="1/4to1/3_0" pos="15.90" x="98.35" y="379.35" speed="13.90" personNumber="0"/>
    </timestep>
    <timestep time="113.00" id="probe1" vType="">
        <vehicle id="bus.0" lane="1/4to1/3_0" pos="29.80" x="98.35" y="365.45" speed="13.90" personNumber="0"/>
    </timestep>
    <timestep time="114.00" id="probe1" vType="">
        <vehicle id="bus.0" lane="1/4to1/3_0" pos="43.70" x="98.35" y="351.55" speed="13.90" personNumber="0"/>
    </timestep>
    <timestep time="115.00" id="probe1" vType="">
        <vehicle id="bus.0" lane="1/4to1/3_0" pos="57.60" x="98.35" y="337.65" speed="13.90" personNumber="0"/>
    </timestep>
    <timestep time="116.00" id="probe1" vType="">
        <vehicle id="bus.0" lane="1/4to1/3_0" pos="71.50" x="98.35" y="323.75" speed="13.90" personNumber="0"/>
    </timestep>
    <timestep time="117.00" id="probe1" vType="">
        <vehicle id="bus.0" lane="1/4to1/3_0" pos="85.40" x="98.35" y="309.85" speed="13.90" personNumber="0"/>
    </timestep>
    <timestep time="118.00" id="probe1" vType=""/>
    <timestep time="119.00" id="probe1" vType=""/>
    <timestep time="120.00" id="probe1" vType=""/>
    <timestep time="121.00" id="probe1" vType=""/>
    <timestep time="122.00" id="probe1" vType=""/>
    <timestep time="123.00" id="probe1" vType=""/>
    <timestep time="124.00" id="probe1" vType=""/>
    <timestep time="125.00" id="probe1" vType=""/>
    <timestep time="126.00" id="probe1" vType=""/>
    <timestep time="127.00" id="probe1" vType=""/>
    <timestep time="128.00" id="probe1" vType=""/>
    <timestep time="129.00" id="probe1" vType=""/>
    <timestep time="130.00" id="probe1" vType=""/>
    <timestep time="131.00" id="probe1" vType=""/>
    <timestep time="132.00" id="probe1" vType=""/>
    <timestep time="133.00" id="probe1" vType=""/>
    <timestep time="134.00" id="probe1" vType=""/>
    <timestep time="135.00" id="probe1" vType=""/>
    <timestep time="136.00" id="probe1" vType=""/>
    <timestep time="137.00" id="probe1" vType=""/>
    <timestep time="138.00" id="probe1" vType=""/>
    <timestep time="139.00" id="probe1" vType=""/>
</vehicle-type-probes>
