<?xml version="1.0" encoding="UTF-8"?>

<!-- generated on 11/23/12 10:13:36 by SUMO netconvert Version dev-SVN-rUNKNOWN
<?xml version="1.0" encoding="UTF-8"?>

<configuration xmlns:xsi="http://www.w3.org/2001/XMLSchema-instance" xsi:noNamespaceSchemaLocation="http://sumo.sf.net/xsd/netconvertConfiguration.xsd">

    <input>
        <node-files value="data/input_nodes.nod.xml"/>
        <edge-files value="data/input_edges.edg.xml"/>
        <connection-files value="data/input_connections.con.xml"/>
    </input>

    <output>
        <output-file value="data/acosta_buslanes.net.xml"/>
    </output>

    <report>
        <verbose value="true"/>
    </report>

</configuration>
-->

<net version="0.13" xmlns:xsi="http://www.w3.org/2001/XMLSchema-instance" xsi:noNamespaceSchemaLocation="http://sumo.sf.net/xsd/net_file.xsd">

    <location netOffset="0.00,0.00" convBoundary="0.00,0.00,1817.58,1557.25" origBoundary="0.00,0.00,1817.58,1557.25" projParameter="!"/>

    <edge id=":0_0" function="internal">
        <lane id=":0_0_0" index="0" speed="13.89" length="9.05" shape="1406.01,1020.04 1414.85,1018.11"/>
    </edge>
    <edge id=":0_1" function="internal">
        <lane id=":0_1_0" index="0" speed="13.89" length="10.68" shape="1406.09,1023.34 1409.20,1022.85 1411.30,1021.95 1413.38,1021.26 1416.43,1021.39"/>
    </edge>
    <edge id=":0_2" function="internal">
        <lane id=":0_2_0" index="0" speed="13.89" length="10.98" shape="1406.09,1023.34 1409.33,1023.35 1411.55,1023.59 1413.73,1024.14 1416.85,1025.07"/>
    </edge>
    <edge id=":0_3" function="internal">
        <lane id=":0_3_0" index="0" speed="13.89" length="9.90" shape="1406.17,1026.64 1415.94,1028.24"/>
    </edge>
    <edge id=":1_0" function="internal">
        <lane id=":1_0_0" index="0" speed="13.89" length="9.44" shape="1503.45,1049.71 1501.54,1058.96"/>
    </edge>
    <edge id=":1_1" function="internal">
        <lane id=":1_1_0" index="0" speed="13.89" length="9.53" shape="1500.25,1048.88 1498.32,1058.21"/>
    </edge>
    <edge id=":1_2" function="internal">
        <lane id=":1_2_0" index="0" speed="13.89" length="9.61" shape="1497.06,1048.05 1495.11,1057.46"/>
    </edge>
    <edge id=":1_3" function="internal">
        <lane id=":1_3_0" index="0" speed="13.89" length="3.58" shape="1493.13,1049.99 1496.32,1051.61"/>
    </edge>
    <edge id=":1_5" function="internal">
        <lane id=":1_5_0" index="0" speed="13.89" length="9.67" shape="1496.32,1051.61 1497.24,1052.07 1500.01,1054.26 1501.44,1056.56 1501.54,1058.96"/>
    </edge>
    <edge id=":1_4" function="internal">
        <lane id=":1_4_0" index="0" speed="13.89" length="4.26" shape="1491.84,1053.03 1494.87,1054.47 1495.63,1054.95"/>
    </edge>
    <edge id=":1_6" function="internal">
        <lane id=":1_6_0" index="0" speed="13.89" length="4.45" shape="1495.63,1054.95 1496.96,1055.81 1498.11,1057.06 1498.32,1058.21"/>
    </edge>
    <edge id=":10_0" function="internal">
        <lane id=":10_0_0" index="0" speed="13.89" length="4.47" shape="611.16,1137.91 606.95,1136.43"/>
    </edge>
    <edge id=":10_1" function="internal">
        <lane id=":10_1_0" index="0" speed="13.89" length="2.99" shape="611.16,1137.91 610.00,1135.16"/>
    </edge>
    <edge id=":10_2" function="internal">
        <lane id=":10_2_0" index="0" speed="13.89" length="4.44" shape="611.16,1137.91 613.04,1133.89"/>
    </edge>
    <edge id=":11_0" function="internal">
        <lane id=":11_0_0" index="0" speed="13.89" length="3.38" shape="303.18,377.80 305.77,379.97"/>
    </edge>
    <edge id=":11_1" function="internal">
        <lane id=":11_1_0" index="0" speed="13.89" length="3.46" shape="303.18,377.80 302.73,381.24"/>
    </edge>
    <edge id=":114-end_0" function="internal">
        <lane id=":114-end_0_0" index="0" speed="13.89" length="4.82" shape="781.38,1558.77 779.92,1558.49 779.23,1557.88 779.29,1556.96 780.12,1555.73"/>
    </edge>
    <edge id=":12_0" function="internal">
        <lane id=":12_0_0" index="0" speed="13.89" length="7.85" shape="321.91,443.23 320.70,440.76 319.47,439.00 318.22,437.95 316.95,437.60"/>
    </edge>
    <edge id=":12_1" function="internal">
        <lane id=":12_1_0" index="0" speed="13.89" length="9.34" shape="321.91,443.23 320.61,433.98"/>
    </edge>
    <edge id=":12_2" function="internal">
        <lane id=":12_2_0" index="0" speed="13.89" length="4.96" shape="324.95,441.93 323.84,437.94 324.03,437.15"/>
    </edge>
    <edge id=":12_9" function="internal">
        <lane id=":12_9_0" index="0" speed="13.89" length="8.81" shape="324.03,437.15 324.48,435.28 326.87,433.96 331.02,433.98"/>
    </edge>
    <edge id=":12_3" function="internal">
        <lane id=":12_3_0" index="0" speed="13.89" length="5.87" shape="330.57,437.25 328.81,437.24 327.78,437.80 327.51,438.93 327.99,440.64"/>
    </edge>
    <edge id=":12_4" function="internal">
        <lane id=":12_4_0" index="0" speed="13.89" length="13.65" shape="330.57,437.25 327.06,437.01 323.78,437.16 320.49,437.44 316.95,437.60"/>
    </edge>
    <edge id=":12_5" function="internal">
        <lane id=":12_5_0" index="0" speed="13.89" length="4.66" shape="330.57,437.25 326.54,436.58 325.99,436.44"/>
    </edge>
    <edge id=":12_10" function="internal">
        <lane id=":12_10_0" index="0" speed="13.89" length="6.04" shape="325.99,436.44 323.53,435.81 321.56,434.94 320.61,433.98"/>
    </edge>
    <edge id=":12_6" function="internal">
        <lane id=":12_6_0" index="0" speed="13.89" length="4.98" shape="327.16,431.22 327.77,432.28 328.62,433.09 329.70,433.66 331.02,433.98"/>
    </edge>
    <edge id=":12_7" function="internal">
        <lane id=":12_7_0" index="0" speed="13.89" length="9.01" shape="324.12,432.50 327.99,440.64"/>
    </edge>
    <edge id=":12_8" function="internal">
        <lane id=":12_8_0" index="0" speed="13.89" length="6.64" shape="324.12,432.50 324.46,434.72 323.38,436.30 321.07,437.19"/>
    </edge>
    <edge id=":12_11" function="internal">
        <lane id=":12_11_0" index="0" speed="13.89" length="4.15" shape="321.07,437.19 320.87,437.27 316.95,437.60"/>
    </edge>
    <edge id=":13_0" function="internal">
        <lane id=":13_0_0" index="0" speed="13.89" length="5.55" shape="435.23,451.60 433.61,451.62 432.59,452.16 432.17,453.24 432.36,454.85"/>
    </edge>
    <edge id=":13_1" function="internal">
        <lane id=":13_1_0" index="0" speed="13.89" length="9.31" shape="435.23,451.60 426.00,450.37"/>
    </edge>
    <edge id=":13_2" function="internal">
        <lane id=":13_2_0" index="0" speed="13.89" length="6.11" shape="435.23,451.60 433.44,450.93 431.85,449.41 430.83,447.69"/>
    </edge>
    <edge id=":13_4" function="internal">
        <lane id=":13_4_0" index="0" speed="13.89" length="4.19" shape="430.83,447.69 430.45,447.04 429.24,443.81"/>
    </edge>
    <edge id=":13_3" function="internal">
        <lane id=":13_3_0" index="0" speed="13.89" length="9.29" shape="426.45,447.10 435.65,448.33"/>
    </edge>
    <edge id=":133-begin_0" function="internal">
        <lane id=":133-begin_0_0" index="0" speed="13.89" length="4.82" shape="1759.03,735.78 1760.43,736.27 1761.04,736.97 1760.84,737.87 1759.85,738.98"/>
    </edge>
    <edge id=":135-begin_0" function="internal">
        <lane id=":135-begin_0_0" index="0" speed="13.89" length="4.82" shape="929.40,1305.17 929.12,1306.63 928.52,1307.33 927.60,1307.27 926.36,1306.45"/>
    </edge>
    <edge id=":137-begin_0" function="internal">
        <lane id=":137-begin_0_0" index="0" speed="13.89" length="4.82" shape="457.44,1282.03 455.98,1281.73 455.28,1281.13 455.35,1280.21 456.18,1278.97"/>
    </edge>
    <edge id=":15_0" function="internal">
        <lane id=":15_0_0" index="0" speed="13.89" length="4.96" shape="803.27,1024.73 802.57,1023.57 801.65,1022.91 800.54,1022.74 799.23,1023.05"/>
    </edge>
    <edge id=":15_1" function="internal">
        <lane id=":15_1_0" index="0" speed="13.89" length="7.75" shape="803.27,1024.73 802.00,1022.25 800.69,1020.63 799.37,1019.87 798.01,1019.98"/>
    </edge>
    <edge id=":15_2" function="internal">
        <lane id=":15_2_0" index="0" speed="13.89" length="20.31" shape="806.30,1023.41 803.59,1017.22 801.52,1012.29 800.08,1008.16 799.30,1004.41"/>
    </edge>
    <edge id=":15_3" function="internal">
        <lane id=":15_3_0" index="0" speed="13.89" length="10.16" shape="809.33,1022.09 807.92,1018.31 807.44,1015.55 807.89,1013.83 809.27,1013.13"/>
    </edge>
    <edge id=":15_4" function="internal">
        <lane id=":15_4_0" index="0" speed="13.89" length="7.99" shape="793.94,1009.65 796.42,1008.46 798.14,1007.18 799.10,1005.83 799.30,1004.41"/>
    </edge>
    <edge id=":15_5" function="internal">
        <lane id=":15_5_0" index="0" speed="13.89" length="15.10" shape="793.94,1009.65 798.12,1008.09 801.09,1007.33 804.15,1006.96 808.62,1006.56"/>
    </edge>
    <edge id=":15_6" function="internal">
        <lane id=":15_6_0" index="0" speed="13.89" length="14.18" shape="795.15,1012.72 799.07,1011.26 801.87,1010.55 804.75,1010.22 808.94,1009.85"/>
    </edge>
    <edge id=":15_7" function="internal">
        <lane id=":15_7_0" index="0" speed="13.89" length="13.26" shape="796.36,1015.79 800.03,1014.42 802.65,1013.78 805.34,1013.47 809.27,1013.13"/>
    </edge>
    <edge id=":16_0" function="internal">
        <lane id=":16_0_0" index="0" speed="13.89" length="4.73" shape="663.19,1062.11 660.50,1066.00"/>
    </edge>
    <edge id=":16_1" function="internal">
        <lane id=":16_1_0" index="0" speed="13.89" length="4.65" shape="662.83,1058.83 660.27,1062.71"/>
    </edge>
    <edge id=":16_2" function="internal">
        <lane id=":16_2_0" index="0" speed="13.89" length="2.85" shape="662.83,1058.83 660.04,1059.42"/>
    </edge>
    <edge id=":17_0" function="internal">
        <lane id=":17_0_0" index="0" speed="13.89" length="3.53" shape="818.20,1054.45 815.32,1052.42"/>
    </edge>
    <edge id=":17_1" function="internal">
        <lane id=":17_1_0" index="0" speed="13.89" length="3.50" shape="821.22,1053.10 818.35,1051.10"/>
    </edge>
    <edge id=":17_2" function="internal">
        <lane id=":17_2_0" index="0" speed="13.89" length="3.32" shape="821.22,1053.10 821.37,1049.79"/>
    </edge>
    <edge id=":18_0" function="internal">
        <lane id=":18_0_0" index="0" speed="13.89" length="7.92" shape="467.53,589.83 466.52,588.11 465.16,586.81 463.45,585.94 461.37,585.49"/>
    </edge>
    <edge id=":18_1" function="internal">
        <lane id=":18_1_0" index="0" speed="13.89" length="9.69" shape="467.53,589.83 466.53,586.66 466.68,584.48 467.97,583.29 470.39,583.10"/>
    </edge>
    <edge id=":18_2" function="internal">
        <lane id=":18_2_0" index="0" speed="13.89" length="8.74" shape="470.06,586.38 461.37,585.49"/>
    </edge>
    <edge id=":18_3" function="internal">
        <lane id=":18_3_0" index="0" speed="13.89" length="7.69" shape="464.54,578.92 465.27,580.56 466.48,581.81 468.19,582.65 470.39,583.10"/>
    </edge>
    <edge id=":18_4" function="internal">
        <lane id=":18_4_0" index="0" speed="13.89" length="9.04" shape="464.54,578.92 465.03,581.99 464.67,584.11 463.45,585.28 461.37,585.49"/>
    </edge>
    <edge id=":18_5" function="internal">
        <lane id=":18_5_0" index="0" speed="13.89" length="8.72" shape="461.71,582.21 470.39,583.10"/>
    </edge>
    <edge id=":19_0" function="internal">
        <lane id=":19_0_0" index="0" speed="13.89" length="9.77" shape="380.83,583.87 377.92,574.55"/>
    </edge>
    <edge id=":19_1" function="internal">
        <lane id=":19_1_0" index="0" speed="13.89" length="10.89" shape="380.83,583.87 380.27,580.98 380.90,578.69 381.52,576.34 380.95,573.26"/>
    </edge>
    <edge id=":19_2" function="internal">
        <lane id=":19_2_0" index="0" speed="13.89" length="12.43" shape="380.83,583.87 379.56,579.33 380.53,576.27 383.74,574.71 384.67,574.70"/>
    </edge>
    <edge id=":19_7" function="internal">
        <lane id=":19_7_0" index="0" speed="13.89" length="4.52" shape="384.67,574.70 389.19,574.65"/>
    </edge>
    <edge id=":19_3" function="internal">
        <lane id=":19_3_0" index="0" speed="13.89" length="5.83" shape="388.85,577.93 387.10,577.98 386.10,578.58 385.85,579.71 386.35,581.39"/>
    </edge>
    <edge id=":19_4" function="internal">
        <lane id=":19_4_0" index="0" speed="13.89" length="11.71" shape="388.85,577.93 384.44,577.33 381.15,576.57 378.98,575.64 377.92,574.55"/>
    </edge>
    <edge id=":19_5" function="internal">
        <lane id=":19_5_0" index="0" speed="13.89" length="6.12" shape="383.99,571.96 384.67,572.97 385.77,573.76 387.27,574.32 389.19,574.65"/>
    </edge>
    <edge id=":19_6" function="internal">
        <lane id=":19_6_0" index="0" speed="13.89" length="9.72" shape="383.99,571.96 386.35,581.39"/>
    </edge>
    <edge id=":1b_0" function="internal">
        <lane id=":1b_0_0" index="0" speed="13.89" length="13.86" shape="1479.50,1043.09 1483.32,1044.50 1485.74,1045.95 1488.10,1047.55 1491.77,1049.41"/>
    </edge>
    <edge id=":1b_1" function="internal">
        <lane id=":1b_1_0" index="0" speed="13.89" length="13.46" shape="1478.58,1046.26 1482.29,1047.64 1484.63,1049.07 1486.92,1050.64 1490.48,1052.45"/>
    </edge>
    <edge id=":1b_2" function="internal">
        <lane id=":1b_2_0" index="0" speed="13.89" length="12.48" shape="1480.14,1052.99 1481.03,1049.39 1481.77,1046.97 1482.54,1044.55 1483.54,1040.98"/>
    </edge>
    <edge id=":1b_3" function="internal">
        <lane id=":1b_3_0" index="0" speed="13.89" length="12.38" shape="1483.36,1053.72 1484.25,1050.15 1484.98,1047.74 1485.74,1045.34 1486.73,1041.80"/>
    </edge>
    <edge id=":1b_4" function="internal">
        <lane id=":1b_4_0" index="0" speed="13.89" length="12.29" shape="1486.58,1054.45 1487.46,1050.91 1488.19,1048.52 1488.95,1046.14 1489.93,1042.63"/>
    </edge>
    <edge id=":1c_0" function="internal">
        <lane id=":1c_0_0" index="0" speed="13.89" length="5.19" shape="1508.51,1029.08 1508.39,1030.45 1508.76,1031.54 1509.63,1032.36 1511.00,1032.90"/>
    </edge>
    <edge id=":1c_1" function="internal">
        <lane id=":1c_1_0" index="0" speed="13.89" length="8.81" shape="1508.51,1029.08 1506.57,1037.68"/>
    </edge>
    <edge id=":1c_2" function="internal">
        <lane id=":1c_2_0" index="0" speed="13.89" length="8.78" shape="1505.31,1028.28 1503.37,1036.85"/>
    </edge>
    <edge id=":1c_3" function="internal">
        <lane id=":1c_3_0" index="0" speed="13.89" length="8.75" shape="1502.11,1027.48 1500.18,1036.02"/>
    </edge>
    <edge id=":1c_4" function="internal">
        <lane id=":1c_4_0" index="0" speed="13.89" length="13.58" shape="1497.48,1032.60 1501.02,1032.43 1504.30,1032.26 1507.54,1032.33 1511.00,1032.90"/>
    </edge>
    <edge id=":2_0" function="internal">
        <lane id=":2_0_0" index="0" speed="13.89" length="3.45" shape="1436.05,1021.78 1439.30,1020.62"/>
    </edge>
    <edge id=":2_1" function="internal">
        <lane id=":2_1_0" index="0" speed="13.89" length="3.47" shape="1435.43,1025.02 1438.70,1023.86"/>
    </edge>
    <edge id=":2_2" function="internal">
        <lane id=":2_2_0" index="0" speed="13.89" length="3.39" shape="1435.43,1025.02 1438.10,1027.11"/>
    </edge>
    <edge id=":204c_0" function="internal">
        <lane id=":204c_0_0" index="0" speed="13.89" length="12.80" shape="1459.59,1246.85 1460.72,1250.43 1461.92,1252.73 1463.40,1254.92 1465.39,1258.16"/>
    </edge>
    <edge id=":204c_1" function="internal">
        <lane id=":204c_1_0" index="0" speed="13.89" length="13.36" shape="1459.59,1246.85 1460.28,1250.76 1460.45,1253.54 1460.92,1256.21 1462.51,1259.77"/>
    </edge>
    <edge id=":204c_2" function="internal">
        <lane id=":204c_2_0" index="0" speed="13.89" length="14.22" shape="1456.39,1247.65 1457.14,1251.81 1457.37,1254.77 1457.92,1257.59 1459.63,1261.37"/>
    </edge>
    <edge id=":204c_3" function="internal">
        <lane id=":204c_3_0" index="0" speed="13.89" length="13.84" shape="1456.39,1247.65 1457.19,1251.92 1457.28,1255.57 1456.65,1258.59 1455.31,1261.00"/>
    </edge>
    <edge id=":204c_4" function="internal">
        <lane id=":204c_4_0" index="0" speed="13.89" length="10.79" shape="1453.19,1248.46 1453.88,1251.95 1454.04,1254.86 1453.66,1257.18 1452.75,1258.93"/>
    </edge>
    <edge id=":20a_0" function="internal">
        <lane id=":20a_0_0" index="0" speed="13.89" length="5.41" shape="436.00,747.43 435.78,745.92 435.27,744.69 434.46,743.73 433.35,743.05"/>
    </edge>
    <edge id=":20a_1" function="internal">
        <lane id=":20a_1_0" index="0" speed="13.89" length="5.91" shape="436.00,747.43 437.51,741.72"/>
    </edge>
    <edge id=":20a_2" function="internal">
        <lane id=":20a_2_0" index="0" speed="13.89" length="4.00" shape="439.30,747.28 440.34,743.41"/>
    </edge>
    <edge id=":20b_0" function="internal">
        <lane id=":20b_0_0" index="0" speed="13.89" length="6.46" shape="438.30,732.71 440.31,733.35 442.02,733.65 443.44,733.60 444.56,733.21"/>
    </edge>
    <edge id=":20b_1" function="internal">
        <lane id=":20b_1_0" index="0" speed="13.89" length="9.37" shape="437.13,735.80 439.87,736.63 442.29,736.96 444.41,736.77 446.22,736.06"/>
    </edge>
    <edge id=":20b_2" function="internal">
        <lane id=":20b_2_0" index="0" speed="13.89" length="9.01" shape="438.58,739.94 444.56,733.21"/>
    </edge>
    <edge id=":20b_3" function="internal">
        <lane id=":20b_3_0" index="0" speed="13.89" length="7.36" shape="441.41,741.63 446.22,736.06"/>
    </edge>
    <edge id=":20c_0" function="internal">
        <lane id=":20c_0_0" index="0" speed="13.89" length="5.03" shape="447.86,731.30 448.95,730.44 449.49,729.45 449.48,728.32 448.93,727.05"/>
    </edge>
    <edge id=":20c_1" function="internal">
        <lane id=":20c_1_0" index="0" speed="13.89" length="3.51" shape="447.86,731.30 450.99,729.71"/>
    </edge>
    <edge id=":20c_2" function="internal">
        <lane id=":20c_2_0" index="0" speed="13.89" length="2.92" shape="449.51,734.16 452.11,732.82"/>
    </edge>
    <edge id=":21_0" function="internal">
        <lane id=":21_0_0" index="0" speed="13.89" length="3.33" shape="419.90,656.05 422.63,657.95"/>
    </edge>
    <edge id=":21_1" function="internal">
        <lane id=":21_1_0" index="0" speed="13.89" length="3.38" shape="419.90,656.05 419.67,659.42"/>
    </edge>
    <edge id=":21m_0" function="internal">
        <lane id=":21m_0_0" index="0" speed="13.89" length="6.25" shape="436.51,706.83 433.55,701.33"/>
    </edge>
    <edge id=":21m_1" function="internal">
        <lane id=":21m_1_0" index="0" speed="13.89" length="5.72" shape="432.18,706.62 433.14,705.14 433.68,703.77 433.82,702.50 433.55,701.33"/>
    </edge>
    <edge id=":23_0" function="internal">
        <lane id=":23_0_0" index="0" speed="13.89" length="10.58" shape="526.35,933.78 524.97,930.98 523.32,928.83 521.42,927.33 519.25,926.47"/>
    </edge>
    <edge id=":23_1" function="internal">
        <lane id=":23_1_0" index="0" speed="13.89" length="14.20" shape="529.41,932.53 527.52,928.45 525.80,925.54 524.21,923.00 522.72,920.03"/>
    </edge>
    <edge id=":23_2" function="internal">
        <lane id=":23_2_0" index="0" speed="13.89" length="14.48" shape="527.47,918.03 529.26,921.18 531.67,923.70 534.68,925.57 538.30,926.80"/>
    </edge>
    <edge id=":23_3" function="internal">
        <lane id=":23_3_0" index="0" speed="13.89" length="14.53" shape="527.47,918.03 529.18,920.90 531.23,923.23 533.42,925.96 535.56,930.02"/>
    </edge>
    <edge id=":23_4" function="internal">
        <lane id=":23_4_0" index="0" speed="13.89" length="9.82" shape="527.47,918.03 528.81,922.87 527.88,925.89 526.35,926.47"/>
    </edge>
    <edge id=":23_8" function="internal">
        <lane id=":23_8_0" index="0" speed="13.89" length="7.25" shape="526.35,926.47 524.70,927.09 519.25,926.47"/>
    </edge>
    <edge id=":23_5" function="internal">
        <lane id=":23_5_0" index="0" speed="13.89" length="6.09" shape="520.00,923.26 521.86,923.45 522.94,922.98 523.22,921.84 522.72,920.03"/>
    </edge>
    <edge id=":23_6" function="internal">
        <lane id=":23_6_0" index="0" speed="13.89" length="18.64" shape="520.00,923.26 524.23,924.13 529.15,925.03 534.07,925.93 538.30,926.80"/>
    </edge>
    <edge id=":23_7" function="internal">
        <lane id=":23_7_0" index="0" speed="13.89" length="15.38" shape="520.00,923.26 524.61,924.65 528.23,926.45 530.86,928.65 532.51,931.26"/>
    </edge>
    <edge id=":24_0" function="internal">
        <lane id=":24_0_0" index="0" speed="13.89" length="7.61" shape="689.56,263.99 687.22,256.75"/>
    </edge>
    <edge id=":24_1" function="internal">
        <lane id=":24_1_0" index="0" speed="13.89" length="6.97" shape="689.56,263.99 689.04,261.78 689.39,260.61 690.60,260.49 692.67,261.40"/>
    </edge>
    <edge id=":25_0" function="internal">
        <lane id=":25_0_0" index="0" speed="13.89" length="5.06" shape="641.48,299.01 642.77,298.49 643.56,297.68 643.86,296.58 643.65,295.20"/>
    </edge>
    <edge id=":25_1" function="internal">
        <lane id=":25_1_0" index="0" speed="13.89" length="5.07" shape="641.48,299.01 642.89,298.85 644.04,299.13 644.93,299.85 645.56,301.02"/>
    </edge>
    <edge id=":25-begin_0" function="internal">
        <lane id=":25-begin_0_0" index="0" speed="13.89" length="4.82" shape="179.55,877.32 178.43,876.34 178.13,875.46 178.65,874.70 179.99,874.05"/>
    </edge>
    <edge id=":26_0" function="internal">
        <lane id=":26_0_0" index="0" speed="13.89" length="12.46" shape="1605.25,778.97 1602.35,780.23 1600.25,781.87 1597.92,783.51 1594.35,784.79"/>
    </edge>
    <edge id=":26_1" function="internal">
        <lane id=":26_1_0" index="0" speed="13.89" length="11.87" shape="1605.25,778.97 1602.21,779.73 1599.82,780.27 1597.24,780.81 1593.67,781.56"/>
    </edge>
    <edge id=":26_2" function="internal">
        <lane id=":26_2_0" index="0" speed="13.89" length="11.44" shape="1591.61,771.91 1594.94,771.24 1597.22,770.76 1599.48,770.23 1602.77,769.39"/>
    </edge>
    <edge id=":26_3" function="internal">
        <lane id=":26_3_0" index="0" speed="13.89" length="11.58" shape="1592.30,775.14 1595.67,774.46 1597.97,773.98 1600.26,773.44 1603.59,772.59"/>
    </edge>
    <edge id=":26_4" function="internal">
        <lane id=":26_4_0" index="0" speed="13.89" length="11.73" shape="1592.99,778.37 1596.40,777.68 1598.73,777.19 1601.05,776.64 1604.42,775.78"/>
    </edge>
    <edge id=":26_5" function="internal">
        <lane id=":26_5_0" index="0" speed="13.89" length="5.63" shape="1597.39,787.85 1597.53,786.20 1597.07,785.14 1596.01,784.66 1594.35,784.79"/>
    </edge>
    <edge id=":26_6" function="internal">
        <lane id=":26_6_0" index="0" speed="13.89" length="16.80" shape="1597.39,787.85 1599.00,781.46 1600.57,776.78 1602.10,773.83 1603.59,772.59"/>
    </edge>
    <edge id=":26_7" function="internal">
        <lane id=":26_7_0" index="0" speed="13.89" length="14.53" shape="1597.39,787.85 1598.74,783.02 1600.37,779.39 1602.26,776.98 1604.42,775.78"/>
    </edge>
    <edge id=":26_8" function="internal">
        <lane id=":26_8_0" index="0" speed="13.89" length="5.15" shape="1597.39,787.85 1598.54,786.75 1599.49,786.52 1600.26,787.14 1600.83,788.62"/>
    </edge>
    <edge id=":27_0" function="internal">
        <lane id=":27_0_0" index="0" speed="13.89" length="11.34" shape="1580.24,787.79 1576.12,788.83 1573.08,789.94 1571.12,791.14 1570.23,792.42"/>
    </edge>
    <edge id=":27_1" function="internal">
        <lane id=":27_1_0" index="0" speed="13.89" length="9.10" shape="1580.24,787.79 1571.17,788.54"/>
    </edge>
    <edge id=":27_15" function="internal">
        <lane id=":27_15_0" index="0" speed="13.89" length="29.70" shape="1571.17,788.54 1568.41,788.77 1560.88,785.75 1557.65,778.72 1558.72,767.69"/>
    </edge>
    <edge id=":27_2" function="internal">
        <lane id=":27_2_0" index="0" speed="13.89" length="36.39" shape="1579.58,784.56 1570.48,785.05 1559.63,784.17 1549.68,783.05 1543.30,782.83"/>
    </edge>
    <edge id=":27_3" function="internal">
        <lane id=":27_3_0" index="0" speed="13.89" length="5.65" shape="1574.61,771.62 1574.45,773.28 1574.89,774.35 1575.95,774.84 1577.60,774.74"/>
    </edge>
    <edge id=":27_4" function="internal">
        <lane id=":27_4_0" index="0" speed="13.89" length="21.26" shape="1574.61,771.62 1573.27,777.79 1572.52,782.05 1571.72,786.29 1570.23,792.42"/>
    </edge>
    <edge id=":27_5" function="internal">
        <lane id=":27_5_0" index="0" speed="13.89" length="21.20" shape="1571.41,770.83 1570.07,776.98 1569.33,781.23 1568.53,785.46 1567.04,791.57"/>
    </edge>
    <edge id=":27_6" function="internal">
        <lane id=":27_6_0" index="0" speed="13.89" length="21.15" shape="1568.20,770.04 1566.87,776.17 1566.13,780.40 1565.33,784.63 1563.85,790.72"/>
    </edge>
    <edge id=":27_7" function="internal">
        <lane id=":27_7_0" index="0" speed="13.89" length="10.38" shape="1568.20,770.04 1565.85,774.20 1561.29,777.45"/>
    </edge>
    <edge id=":27_16" function="internal">
        <lane id=":27_16_0" index="0" speed="13.89" length="18.85" shape="1561.29,777.45 1560.91,777.72 1553.40,780.60 1543.30,782.83"/>
    </edge>
    <edge id=":27_8" function="internal">
        <lane id=":27_8_0" index="0" speed="13.89" length="13.37" shape="1541.64,772.93 1545.82,771.93 1548.99,770.46 1551.16,768.52 1552.31,766.11"/>
    </edge>
    <edge id=":27_9" function="internal">
        <lane id=":27_9_0" index="0" speed="13.89" length="36.32" shape="1542.19,776.18 1552.00,775.86 1560.26,777.28 1568.50,778.60 1578.26,777.97"/>
    </edge>
    <edge id=":27_10" function="internal">
        <lane id=":27_10_0" index="0" speed="13.89" length="5.59" shape="1542.73,779.44 1548.31,778.97"/>
    </edge>
    <edge id=":27_17" function="internal">
        <lane id=":27_17_0" index="0" speed="13.89" length="31.89" shape="1548.31,778.97 1556.59,778.27 1565.79,780.04 1570.33,784.76 1570.23,792.42"/>
    </edge>
    <edge id=":27_11" function="internal">
        <lane id=":27_11_0" index="0" speed="13.89" length="20.84" shape="1546.22,786.03 1547.92,780.08 1549.31,776.08 1550.67,772.07 1552.31,766.11"/>
    </edge>
    <edge id=":27_12" function="internal">
        <lane id=":27_12_0" index="0" speed="13.89" length="20.90" shape="1549.41,786.88 1551.11,780.91 1552.50,776.90 1553.87,772.88 1555.52,766.90"/>
    </edge>
    <edge id=":27_13" function="internal">
        <lane id=":27_13_0" index="0" speed="13.89" length="20.96" shape="1552.60,787.72 1554.31,781.75 1555.70,777.72 1557.07,773.68 1558.72,767.69"/>
    </edge>
    <edge id=":27_14" function="internal">
        <lane id=":27_14_0" index="0" speed="13.89" length="5.14" shape="1555.79,788.55 1558.12,783.96"/>
    </edge>
    <edge id=":27_18" function="internal">
        <lane id=":27_18_0" index="0" speed="13.89" length="21.92" shape="1558.12,783.96 1562.53,780.13 1569.02,777.05 1577.60,774.74"/>
    </edge>
    <edge id=":28_0" function="internal">
        <lane id=":28_0_0" index="0" speed="13.89" length="6.27" shape="701.40,446.90 695.33,448.43"/>
    </edge>
    <edge id=":28_1" function="internal">
        <lane id=":28_1_0" index="0" speed="13.89" length="5.43" shape="696.21,441.35 696.93,442.78 697.86,443.66 699.00,443.99 700.35,443.77"/>
    </edge>
    <edge id=":28_2" function="internal">
        <lane id=":28_2_0" index="0" speed="13.89" length="7.92" shape="696.21,441.35 696.97,444.06 697.08,446.15 696.53,447.60 695.33,448.43"/>
    </edge>
    <edge id=":28_3" function="internal">
        <lane id=":28_3_0" index="0" speed="13.89" length="6.24" shape="694.29,445.29 700.35,443.77"/>
    </edge>
    <edge id=":29_0" function="internal">
        <lane id=":29_0_0" index="0" speed="13.89" length="3.49" shape="1528.02,863.31 1527.10,859.95"/>
    </edge>
    <edge id=":29_1" function="internal">
        <lane id=":29_1_0" index="0" speed="13.89" length="3.46" shape="1531.22,864.10 1530.30,860.77"/>
    </edge>
    <edge id=":29_2" function="internal">
        <lane id=":29_2_0" index="0" speed="13.89" length="3.42" shape="1534.43,864.89 1533.49,861.60"/>
    </edge>
    <edge id=":29_3" function="internal">
        <lane id=":29_3_0" index="0" speed="13.89" length="3.35" shape="1534.43,864.89 1536.69,862.43"/>
    </edge>
    <edge id=":3_0" function="internal">
        <lane id=":3_0_0" index="0" speed="13.89" length="5.20" shape="1482.93,1028.63 1484.41,1028.72 1485.57,1028.36 1486.42,1027.58 1486.96,1026.35"/>
    </edge>
    <edge id=":3_1" function="internal">
        <lane id=":3_1_0" index="0" speed="13.89" length="10.22" shape="1482.33,1031.88 1485.17,1032.02 1487.42,1031.29 1489.08,1029.68 1490.15,1027.20"/>
    </edge>
    <edge id=":3_2" function="internal">
        <lane id=":3_2_0" index="0" speed="13.89" length="15.25" shape="1481.73,1035.12 1485.94,1035.32 1489.27,1034.21 1491.74,1031.78 1493.34,1028.05"/>
    </edge>
    <edge id=":3_3" function="internal">
        <lane id=":3_3_0" index="0" speed="13.89" length="14.39" shape="1481.73,1035.12 1486.17,1035.29 1489.48,1034.39 1492.42,1033.24 1495.73,1032.63"/>
    </edge>
    <edge id=":3_4" function="internal">
        <lane id=":3_4_0" index="0" speed="13.89" length="12.80" shape="1484.09,1038.82 1484.99,1035.13 1485.51,1032.58 1486.05,1030.04 1486.96,1026.35"/>
    </edge>
    <edge id=":3_5" function="internal">
        <lane id=":3_5_0" index="0" speed="13.89" length="12.77" shape="1487.29,1039.65 1488.18,1035.96 1488.71,1033.42 1489.24,1030.88 1490.15,1027.20"/>
    </edge>
    <edge id=":3_6" function="internal">
        <lane id=":3_6_0" index="0" speed="13.89" length="12.75" shape="1490.48,1040.47 1491.37,1036.79 1491.90,1034.26 1492.43,1031.72 1493.34,1028.05"/>
    </edge>
    <edge id=":30_0" function="internal">
        <lane id=":30_0_0" index="0" speed="13.89" length="6.80" shape="573.96,468.27 567.18,468.85"/>
    </edge>