<?xml version="1.0" encoding="UTF-8"?>

<!-- generated on 03/26/13 09:11:14 by SUMO netconvert Version dev-SVN-rUNKNOWN
<?xml version="1.0" encoding="UTF-8"?>

<configuration xmlns:xsi="http://www.w3.org/2001/XMLSchema-instance" xsi:noNamespaceSchemaLocation="http://sumo.sf.net/xsd/netconvertConfiguration.xsd">

    <input>
        <opendrive-files value="opendrive.xodr"/>
    </input>

    <output>
        <output-file value="net.net.xml"/>
    </output>

    <processing>
        <no-internal-links value="true"/>
    </processing>

    <report>
        <verbose value="true"/>
    </report>

</configuration>
-->

<net version="0.13" xmlns:xsi="http://www.w3.org/2001/XMLSchema-instance" xsi:noNamespaceSchemaLocation="http://sumo.sf.net/xsd/net_file.xsd">

    <location netOffset="-178.94,-237.10" convBoundary="0.00,0.00,572.07,568.08" origBoundary="178.94,237.10,751.01,805.18" projParameter="!"/>

    <edge id="-71" from="91.71" to="2" priority="1" shape="157.03,270.59 257.02,271.08 258.15,271.09">
        <lane id="-71_0" index="0" speed="13.90" length="112.67" width="3.75" shape="157.04,268.66 257.03,269.16 269.71,269.22"/>
    </edge>
    <edge id="-82" from="2" to="90.82" priority="1" shape="298.46,282.02 369.03,352.87">
        <lane id="-82_0" index="0" speed="13.90" length="120.21" width="3.75" shape="285.56,266.35 370.40,351.52"/>
    </edge>
    <edge id="-88" from="2" to="90.88" priority="1" shape="276.84,258.18 277.43,138.18">
        <lane id="-88_0" index="0" speed="13.90" length="119.70" width="3.75" shape="274.91,259.37 275.50,139.67"/>
    </edge>
    <edge id="-89" from="2" to="91.89" priority="1" shape="276.68,289.18 276.09,409.18">
        <lane id="-89_0" index="0" speed="13.90" length="131.00" width="3.75" shape="278.67,276.69 278.02,407.69"/>
    </edge>
    <edge id="-90" from="90.82" to="90.88" priority="1" shape="369.03,352.87 372.12,355.98 372.83,356.69 373.54,357.39 374.24,358.10 374.95,358.81 375.66,359.52 376.36,360.22 377.07,360.93 377.78,361.63 378.49,362.34 379.21,363.04 379.92,363.74 380.64,364.43 381.36,365.13 382.08,365.83 382.80,366.52 383.52,367.21 384.25,367.89 384.98,368.58 385.71,369.26 386.44,369.94 387.18,370.61 387.92,371.28 388.67,371.95 389.42,372.62 390.17,373.28 390.92,373.93 391.68,374.58 392.44,375.23 393.21,375.87 393.98,376.51 394.75,377.14 395.53,377.77 396.32,378.39 397.10,379.01 397.90,379.62 398.69,380.22 399.50,380.82 400.30,381.41 401.11,381.99 401.93,382.57 403.45,383.61 411.98,388.82 420.96,393.21 430.31,396.76 439.94,399.43 449.78,401.20 459.74,402.05 469.73,401.99 479.68,400.99 489.49,399.09 499.09,396.28 508.38,392.60 517.30,388.08 525.76,382.76 533.69,376.68 541.03,369.89 547.71,362.45 553.68,354.43 558.87,345.89 563.26,336.91 566.80,327.56 569.46,317.92 571.22,308.08 572.07,298.12 571.99,288.13 570.99,278.18 569.07,268.37 568.47,266.03 568.21,265.07 567.94,264.10 567.66,263.14 567.37,262.19 567.08,261.23 566.77,260.28 566.46,259.33 566.14,258.38 565.82,257.43 565.48,256.49 565.14,255.55 564.80,254.61 564.45,253.68 564.09,252.74 563.73,251.81 563.36,250.88 562.98,249.95 562.60,249.03 562.22,248.11 561.83,247.18 561.44,246.27 561.04,245.35 560.64,244.43 560.23,243.52 559.82,242.61 559.41,241.69 558.99,240.78 558.57,239.88 558.15,238.97 557.73,238.06 557.30,237.16 556.87,236.26 556.44,235.35 556.01,234.45 555.58,233.55 555.14,232.65 554.71,231.75 554.27,230.85 553.83,229.95 553.39,229.05 552.58,227.40 480.26,79.47 479.82,78.57 479.38,77.67 478.94,76.78 478.50,75.88 478.06,74.98 477.62,74.08 477.18,73.19 476.73,72.29 476.29,71.40 475.84,70.50 475.39,69.61 474.94,68.71 474.49,67.82 474.04,66.93 473.58,66.04 473.12,65.15 472.66,64.27 472.20,63.38 471.73,62.50 471.26,61.61 470.78,60.73 470.31,59.85 469.83,58.98 469.34,58.10 468.85,57.23 468.36,56.36 467.87,55.49 467.36,54.63 466.86,53.76 466.35,52.90 465.83,52.05 465.31,51.19 464.79,50.34 464.26,49.49 463.73,48.65 463.18,47.81 462.64,46.97 462.09,46.13 461.53,45.30 460.96,44.48 460.40,43.66 459.82,42.84 459.24,42.03 458.65,41.22 458.05,40.41 457.45,39.62 456.84,38.82 456.23,38.03 455.60,37.25 454.97,36.47 454.34,35.70 453.69,34.94 453.04,34.18 452.01,33.00 444.98,25.90 437.27,19.54 428.95,13.98 420.13,9.30 410.87,5.52 401.28,2.69 391.46,0.85 381.50,0.00 371.51,0.16 361.58,1.32 351.82,3.48 342.32,6.61 333.19,10.67 324.52,15.64 316.39,21.45 308.88,28.06 302.08,35.38 296.05,43.35 290.85,51.89 286.54,60.91 283.16,70.31 282.74,71.73 282.47,72.69 282.20,73.65 281.95,74.62 281.71,75.59 281.47,76.56 281.25,77.54 281.03,78.51 280.82,79.49 280.62,80.47 280.43,81.45 280.25,82.44 280.07,83.42 279.91,84.41 279.75,85.39 279.59,86.38 279.45,87.37 279.31,88.36 279.18,89.35 279.05,90.34 278.94,91.34 278.82,92.33 278.72,93.33 278.62,94.32 278.52,95.32 278.44,96.31 278.35,97.31 278.27,98.31 278.20,99.30 278.13,100.30 278.07,101.30 278.01,102.30 277.96,103.30 277.91,104.29 277.86,105.29 277.82,106.29 277.78,107.29 277.75,108.29 277.72,109.29 277.69,110.29 277.66,111.29 277.64,112.29 277.62,113.29 277.60,114.29 277.58,115.29 277.57,116.29 277.56,117.29 277.54,118.29 277.53,119.29 277.53,120.29 277.52,121.29 277.51,122.29 277.51,123.29 277.50,124.29 277.49,125.86 277.43,138.18">
        <lane id="-90_0" index="0" speed="13.90" length="835.82" width="3.75" shape="370.40,351.52 373.49,354.62 374.19,355.33 374.90,356.04 375.61,356.74 376.31,357.45 377.02,358.16 377.72,358.86 378.43,359.56 379.14,360.27 379.85,360.97 380.56,361.66 381.27,362.36 381.98,363.06 382.70,363.75 383.41,364.44 384.13,365.13 384.85,365.81 385.57,366.49 386.30,367.17 387.02,367.85 387.75,368.52 388.48,369.19 389.22,369.86 389.95,370.52 390.69,371.18 391.44,371.83 392.18,372.48 392.93,373.12 393.69,373.76 394.45,374.40 395.21,375.03 395.97,375.65 396.74,376.27 397.51,376.88 398.29,377.49 399.07,378.09 399.86,378.69 400.65,379.27 401.44,379.86 402.24,380.43 403.04,381.00 404.54,382.03 412.99,387.18 421.81,391.49 430.99,394.96 440.45,397.58 450.12,399.31 459.90,400.14 469.72,400.06 479.49,399.08 489.13,397.20 498.55,394.43 507.68,390.81 516.43,386.37 524.74,381.13 532.52,375.15 539.72,368.47 546.28,361.16 552.13,353.28 557.23,344.89 561.53,336.06 565.00,326.88 567.61,317.41 569.33,307.74 570.15,297.96 570.06,288.14 569.07,278.37 567.18,268.74 566.61,266.51 566.35,265.57 566.09,264.63 565.81,263.68 565.53,262.74 565.24,261.80 564.94,260.86 564.63,259.93 564.32,258.99 564.00,258.06 563.67,257.13 563.33,256.20 562.99,255.28 562.64,254.35 562.29,253.43 561.93,252.51 561.57,251.59 561.20,250.67 560.82,249.76 560.44,248.85 560.06,247.93 559.67,247.02 559.27,246.11 558.87,245.21 558.47,244.30 558.07,243.39 557.66,242.49 557.24,241.59 556.83,240.68 556.41,239.78 555.99,238.88 555.56,237.98 555.14,237.08 554.71,236.18 554.28,235.28 553.84,234.39 553.41,233.49 552.97,232.59 552.54,231.69 552.10,230.80 551.66,229.90 550.85,228.24 478.53,80.32 478.09,79.42 477.65,78.52 477.22,77.62 476.78,76.73 476.34,75.83 475.89,74.93 475.45,74.04 475.01,73.15 474.57,72.25 474.12,71.36 473.67,70.47 473.23,69.58 472.78,68.69 472.32,67.81 471.87,66.92 471.41,66.04 470.95,65.15 470.49,64.27 470.03,63.40 469.56,62.52 469.09,61.65 468.62,60.77 468.14,59.90 467.66,59.04 467.17,58.17 466.69,57.31 466.19,56.45 465.70,55.59 465.20,54.74 464.69,53.88 464.18,53.04 463.67,52.19 463.15,51.35 462.63,50.51 462.10,49.68 461.56,48.85 461.03,48.02 460.48,47.20 459.93,46.38 459.37,45.56 458.81,44.75 458.25,43.95 457.67,43.15 457.09,42.35 456.51,41.56 455.91,40.77 455.31,39.99 454.71,39.22 454.10,38.45 453.48,37.69 452.85,36.93 452.22,36.18 451.58,35.43 450.56,34.28 443.61,27.25 436.04,21.02 427.89,15.59 419.22,11.00 410.14,7.30 400.74,4.54 391.10,2.74 381.34,1.92 371.54,2.08 361.80,3.23 352.23,5.36 342.93,8.43 333.98,12.43 325.47,17.31 317.51,23.02 310.15,29.50 303.49,36.69 297.58,44.51 292.49,52.89 288.27,61.74 284.97,70.96 284.58,72.27 284.32,73.21 284.06,74.16 283.81,75.11 283.57,76.06 283.34,77.01 283.12,77.97 282.91,78.93 282.71,79.89 282.51,80.86 282.32,81.82 282.14,82.79 281.97,83.76 281.80,84.73 281.65,85.70 281.50,86.68 281.35,87.65 281.22,88.63 281.09,89.61 280.96,90.58 280.85,91.57 280.74,92.55 280.63,93.53 280.53,94.51 280.44,95.50 280.35,96.48 280.27,97.47 280.19,98.46 280.12,99.44 280.06,100.43 279.99,101.42 279.93,102.41 279.88,103.40 279.83,104.39 279.79,105.38 279.74,106.37 279.71,107.37 279.67,108.36 279.64,109.35 279.61,110.35 279.59,111.34 279.56,112.33 279.54,113.33 279.52,114.32 279.51,115.32 279.49,116.32 279.48,117.31 279.47,118.31 279.46,119.31 279.45,120.30 279.44,121.30 279.44,122.30 279.43,123.30 279.43,124.30 279.42,125.86 279.36,136.69"/>
    </edge>
    <edge id="-91" from="91.71" to="91.89" priority="1" shape="157.03,270.59 147.62,270.54 146.62,270.54 145.62,270.53 144.62,270.53 143.62,270.52 142.62,270.52 141.62,270.52 140.62,270.52 139.62,270.52 138.62,270.52 137.62,270.52 136.62,270.52 135.62,270.53 134.62,270.54 133.62,270.55 132.62,270.56 131.62,270.58 130.62,270.60 129.62,270.62 128.62,270.64 127.62,270.67 126.62,270.70 125.62,270.73 124.62,270.77 123.62,270.81 122.62,270.86 121.62,270.91 120.62,270.96 119.63,271.02 118.63,271.09 117.63,271.16 116.63,271.23 115.64,271.31 114.64,271.39 113.64,271.48 112.65,271.58 111.65,271.68 110.66,271.79 109.67,271.91 108.67,272.03 107.68,272.15 106.69,272.29 105.70,272.43 104.71,272.58 103.72,272.73 102.74,272.89 101.75,273.06 100.00,273.39 90.26,275.66 80.75,278.72 71.51,282.54 62.61,287.10 54.11,292.36 46.07,298.30 38.53,304.87 31.55,312.02 25.18,319.72 19.45,327.92 14.40,336.55 10.07,345.56 6.49,354.89 3.67,364.48 1.64,374.27 0.42,384.20 0.00,394.18 0.39,404.17 1.60,414.10 3.60,423.89 6.39,433.49 9.95,442.83 14.26,451.86 15.12,453.45 15.60,454.33 16.09,455.20 16.59,456.07 17.09,456.93 17.60,457.79 18.12,458.65 18.64,459.50 19.17,460.35 19.71,461.19 20.25,462.03 20.79,462.87 21.34,463.71 21.90,464.54 22.46,465.37 23.02,466.19 23.59,467.01 24.17,467.83 24.74,468.65 25.33,469.46 25.91,470.27 26.50,471.08 27.10,471.88 27.69,472.68 28.30,473.48 28.90,474.28 29.51,475.07 30.12,475.87 30.73,476.66 31.35,477.45 31.96,478.23 32.58,479.02 33.21,479.80 33.83,480.58 34.46,481.36 35.09,482.14 35.72,482.91 36.35,483.69 36.98,484.46 37.62,485.23 38.25,486.01 38.89,486.78 39.53,487.55 40.17,488.32 40.80,489.09 41.44,489.86 42.08,490.62 43.22,491.99 53.44,504.25 54.08,505.02 54.72,505.79 55.36,506.56 56.00,507.33 56.64,508.09 57.29,508.86 57.93,509.63 58.57,510.39 59.22,511.16 59.86,511.92 60.51,512.68 61.15,513.45 61.80,514.21 62.45,514.97 63.10,515.73 63.76,516.48 64.41,517.24 65.07,517.99 65.73,518.75 66.39,519.50 67.05,520.25 67.72,520.99 68.38,521.74 69.05,522.48 69.72,523.22 70.40,523.96 71.08,524.70 71.76,525.43 72.44,526.16 73.12,526.89 73.81,527.61 74.51,528.33 75.20,529.05 75.90,529.77 76.60,530.48 77.31,531.19 78.02,531.89 78.73,532.59 79.45,533.29 80.17,533.99 80.89,534.67 81.62,535.36 82.35,536.04 83.09,536.72 83.83,537.39 84.57,538.06 85.32,538.72 86.08,539.38 86.83,540.03 87.60,540.68 88.36,541.32 89.13,541.96 89.91,542.59 90.69,543.21 91.48,543.83 92.27,544.44 93.06,545.05 93.86,545.65 94.67,546.24 95.47,546.83 96.29,547.41 97.11,547.98 97.96,548.57 106.47,553.82 115.41,558.29 124.71,561.96 134.29,564.79 144.09,566.76 154.03,567.86 164.03,568.08 174.00,567.41 183.88,565.86 193.58,563.44 203.02,560.18 212.15,556.09 220.87,551.21 229.13,545.58 236.86,539.24 244.00,532.25 250.50,524.65 256.29,516.50 261.34,507.87 265.61,498.84 269.07,489.45 269.88,486.81 270.15,485.85 270.42,484.88 270.68,483.92 270.93,482.95 271.17,481.98 271.41,481.01 271.64,480.03 271.86,479.06 272.07,478.08 272.27,477.10 272.47,476.12 272.66,475.14 272.84,474.16 273.02,473.17 273.19,472.19 273.35,471.20 273.51,470.21 273.66,469.22 273.80,468.23 273.94,467.24 274.07,466.25 274.20,465.26 274.32,464.27 274.43,463.27 274.54,462.28 274.64,461.29 274.74,460.29 274.84,459.29 274.92,458.30 275.01,457.30 275.09,456.30 275.16,455.31 275.23,454.31 275.30,453.31 275.36,452.31 275.42,451.32 275.47,450.32 275.52,449.32 275.57,448.32 275.62,447.32 275.66,446.32 275.69,445.32 275.73,444.32 275.76,443.32 275.79,442.32 275.82,441.32 275.84,440.32 275.86,439.32 275.88,438.32 275.90,437.33 275.92,436.33 275.93,435.33 275.94,434.33 275.95,433.33 275.96,432.33 275.97,431.33 275.98,430.33 275.99,429.33 275.99,428.33 276.00,427.33 276.01,426.33 276.01,425.33 276.02,424.29 276.09,409.18">
        <lane id="-91_0" index="0" speed="13.90" length="696.00" width="3.75" shape="157.02,272.51 147.61,272.47 146.61,272.46 145.61,272.46 144.61,272.45 143.61,272.45 142.61,272.44 141.61,272.44 140.61,272.44 139.62,272.44 138.62,272.44 137.62,272.44 136.62,272.45 135.63,272.45 134.63,272.46 133.64,272.47 132.64,272.49 131.65,272.50 130.65,272.52 129.66,272.54 128.66,272.56 127.67,272.59 126.68,272.62 125.68,272.66 124.69,272.69 123.70,272.74 122.71,272.78 121.72,272.83 120.73,272.89 119.74,272.95 118.75,273.01 117.76,273.08 116.78,273.15 115.79,273.23 114.80,273.31 113.82,273.40 112.83,273.50 111.85,273.60 110.87,273.70 109.89,273.82 108.91,273.94 107.93,274.06 106.95,274.19 105.97,274.33 105.00,274.48 104.02,274.63 103.05,274.79 102.08,274.96 100.35,275.28 90.70,277.54 81.34,280.55 72.24,284.32 63.49,288.81 55.12,294.00 47.21,299.85 39.79,306.32 32.93,313.37 26.66,320.95 21.02,329.02 16.06,337.52 11.81,346.39 8.28,355.58 5.52,365.03 3.53,374.66 2.33,384.43 1.92,394.26 2.32,404.10 3.51,413.87 5.49,423.51 8.24,432.95 11.75,442.15 16.00,451.03 16.81,452.54 17.29,453.40 17.77,454.25 18.26,455.11 18.76,455.96 19.26,456.81 19.77,457.65 20.28,458.49 20.81,459.33 21.33,460.16 21.87,460.99 22.40,461.82 22.95,462.65 23.50,463.47 24.05,464.29 24.61,465.10 25.17,465.92 25.74,466.73 26.31,467.53 26.89,468.34 27.47,469.14 28.06,469.94 28.65,470.74 29.24,471.53 29.83,472.33 30.43,473.12 31.04,473.91 31.64,474.69 32.25,475.48 32.86,476.26 33.48,477.04 34.09,477.82 34.71,478.60 35.33,479.38 35.96,480.15 36.58,480.93 37.21,481.70 37.84,482.47 38.47,483.24 39.11,484.01 39.74,484.78 40.37,485.55 41.01,486.32 41.65,487.09 42.29,487.86 42.92,488.62 43.56,489.39 44.70,490.76 54.92,503.02 55.56,503.79 56.20,504.56 56.84,505.32 57.48,506.09 58.12,506.86 58.76,507.62 59.40,508.39 60.05,509.15 60.69,509.92 61.33,510.68 61.98,511.44 62.62,512.20 63.27,512.96 63.92,513.72 64.57,514.47 65.22,515.23 65.87,515.98 66.52,516.73 67.18,517.48 67.83,518.23 68.49,518.97 69.15,519.71 69.82,520.45 70.48,521.19 71.15,521.93 71.82,522.66 72.49,523.39 73.17,524.12 73.85,524.84 74.53,525.57 75.21,526.28 75.90,527.00 76.58,527.71 77.28,528.42 77.97,529.13 78.67,529.83 79.37,530.53 80.08,531.22 80.79,531.91 81.50,532.60 82.22,533.28 82.94,533.96 83.66,534.63 84.39,535.30 85.12,535.96 85.86,536.62 86.60,537.28 87.34,537.93 88.09,538.57 88.84,539.21 89.60,539.84 90.36,540.47 91.12,541.09 91.89,541.71 92.67,542.32 93.45,542.92 94.23,543.52 95.02,544.11 95.81,544.69 96.60,545.27 97.41,545.84 98.21,546.41 99.05,546.98 107.48,552.18 116.27,556.57 125.41,560.17 134.84,562.95 144.47,564.88 154.24,565.95 164.07,566.15 173.87,565.49 183.58,563.96 193.11,561.57 202.40,558.36 211.36,554.33 219.93,549.53 228.05,543.99 235.64,537.76 242.66,530.87 249.03,523.40 254.72,515.38 259.68,506.90 263.87,498.01 267.26,488.79 268.03,486.25 268.30,485.31 268.56,484.37 268.82,483.42 269.07,482.47 269.31,481.51 269.54,480.55 269.76,479.60 269.98,478.63 270.19,477.67 270.39,476.71 270.58,475.74 270.77,474.77 270.95,473.80 271.12,472.83 271.29,471.86 271.45,470.89 271.61,469.91 271.76,468.93 271.90,467.96 272.03,466.98 272.16,466.00 272.29,465.02 272.41,464.04 272.52,463.05 272.63,462.07 272.73,461.09 272.83,460.10 272.92,459.11 273.01,458.13 273.09,457.14 273.17,456.15 273.24,455.16 273.31,454.17 273.38,453.19 273.44,452.19 273.50,451.20 273.55,450.21 273.60,449.22 273.65,448.23 273.69,447.24 273.73,446.24 273.77,445.25 273.80,444.26 273.84,443.26 273.86,442.27 273.89,441.27 273.92,440.28 273.94,439.28 273.96,438.29 273.97,437.29 273.99,436.29 274.00,435.30 274.02,434.30 274.03,433.30 274.04,432.31 274.05,431.31 274.06,430.31 274.06,429.31 274.07,428.31 274.07,427.31 274.08,426.32 274.09,425.32 274.09,424.28 274.16,410.67"/>
    </edge>
    <edge id="71" from="2" to="91.71" priority="1" shape="258.15,271.09 257.02,271.08 157.03,270.59">
        <lane id="71_0" index="0" speed="13.90" length="112.67" width="4.70" shape="269.69,273.54 257.01,273.48 157.01,272.99"/>
    </edge>
    <edge id="82" from="90.82" to="2" priority="1" shape="369.03,352.87 298.46,282.02">
        <lane id="82_0" index="0" speed="13.90" length="120.21" width="4.70" shape="367.33,354.57 282.50,269.40"/>
    </edge>
    <edge id="88" from="90.88" to="2" priority="1" shape="277.43,138.18 276.84,258.18">
        <lane id="88_0" index="0" speed="13.90" length="119.70" width="3.75" shape="281.40,139.70 280.81,259.40"/>
        <lane id="88_1" index="1" speed="13.90" length="119.70" width="0.35" shape="279.25,139.69 278.66,259.39"/>
        <lane id="88_2" index="2" speed="13.90" length="119.70" width="1.50" shape="278.23,139.69 277.63,259.38"/>
    </edge>
    <edge id="89" from="91.89" to="2" priority="1" shape="276.09,409.18 276.68,289.18">
        <lane id="89_0" index="0" speed="13.90" length="131.00" width="3.75" shape="272.12,407.66 272.77,276.66"/>
        <lane id="89_1" index="1" speed="13.90" length="131.00" width="0.35" shape="274.27,407.67 274.92,276.67"/>
        <lane id="89_2" index="2" speed="13.90" length="131.00" width="1.50" shape="275.30,407.67 275.95,276.68"/>
    </edge>
    <edge id="90" from="90.88" to="90.82" priority="1" shape="277.43,138.18 277.49,125.86 277.50,124.29 277.51,123.29 277.51,122.29 277.52,121.29 277.53,120.29 277.53,119.29 277.54,118.29 277.56,117.29 277.57,116.29 277.58,115.29 277.60,114.29 277.62,113.29 277.64,112.29 277.66,111.29 277.69,110.29 277.72,109.29 277.75,108.29 277.78,107.29 277.82,106.29 277.86,105.29 277.91,104.29 277.96,103.30 278.01,102.30 278.07,101.30 278.13,100.30 278.20,99.30 278.27,98.31 278.35,97.31 278.44,96.31 278.52,95.32 278.62,94.32 278.72,93.33 278.82,92.33 278.94,91.34 279.05,90.34 279.18,89.35 279.31,88.36 279.45,87.37 279.59,86.38 279.75,85.39 279.91,84.41 280.07,83.42 280.25,82.44 280.43,81.45 280.62,80.47 280.82,79.49 281.03,78.51 281.25,77.54 281.47,76.56 281.71,75.59 281.95,74.62 282.20,73.65 282.47,72.69 282.74,71.73 283.16,70.31 286.54,60.91 290.85,51.89 296.05,43.35 302.08,35.38 308.88,28.06 316.39,21.45 324.52,15.64 333.19,10.67 342.32,6.61 351.82,3.48 361.58,1.32 371.51,0.16 381.50,0.00 391.46,0.85 401.28,2.69 410.87,5.52 420.13,9.30 428.95,13.98 437.27,19.54 444.98,25.90 452.01,33.00 453.04,34.18 453.69,34.94 454.34,35.70 454.97,36.47 455.60,37.25 456.23,38.03 456.84,38.82 457.45,39.62 458.05,40.41 458.65,41.22 459.24,42.03 459.82,42.84 460.40,43.66 460.96,44.48 461.53,45.30 462.09,46.13 462.64,46.97 463.18,47.81 463.73,48.65 464.26,49.49 464.79,50.34 465.31,51.19 465.83,52.05 466.35,52.90 466.86,53.76 467.36,54.63 467.87,55.49 468.36,56.36 468.85,57.23 469.34,58.10 469.83,58.98 470.31,59.85 470.78,60.73 471.26,61.61 471.73,62.50 472.20,63.38 472.66,64.27 473.12,65.15 473.58,66.04 474.04,66.93 474.49,67.82 474.94,68.71 475.39,69.61 475.84,70.50 476.29,71.40 476.73,72.29 477.18,73.19 477.62,74.08 478.06,74.98 478.50,75.88 478.94,76.78 479.38,77.67 479.82,78.57 480.26,79.47 552.58,227.40 553.39,229.05 553.83,229.95 554.27,230.85 554.71,231.75 555.14,232.65 555.58,233.55 556.01,234.45 556.44,235.35 556.87,236.26 557.30,237.16 557.73,238.06 558.15,238.97 558.57,239.88 558.99,240.78 559.41,241.69 559.82,242.61 560.23,243.52 560.64,244.43 561.04,245.35 561.44,246.27 561.83,247.18 562.22,248.11 562.60,249.03 562.98,249.95 563.36,250.88 563.73,251.81 564.09,252.74 564.45,253.68 564.80,254.61 565.14,255.55 565.48,256.49 565.82,257.43 566.14,258.38 566.46,259.33 566.77,260.28 567.08,261.23 567.37,262.19 567.66,263.14 567.94,264.10 568.21,265.07 568.47,266.03 569.07,268.37 570.99,278.18 571.99,288.13 572.07,298.12 571.22,308.08 569.46,317.92 566.80,327.56 563.26,336.91 558.87,345.89 553.68,354.43 547.71,362.45 541.03,369.89 533.69,376.68 525.76,382.76 517.30,388.08 508.38,392.60 499.09,396.28 489.49,399.09 479.68,400.99 469.73,401.99 459.74,402.05 449.78,401.20 439.94,399.43 430.31,396.76 420.96,393.21 411.98,388.82 403.45,383.61 401.93,382.57 401.11,381.99 400.30,381.41 399.50,380.82 398.69,380.22 397.90,379.62 397.10,379.01 396.32,378.39 395.53,377.77 394.75,377.14 393.98,376.51 393.21,375.87 392.44,375.23 391.68,374.58 390.92,373.93 390.17,373.28 389.42,372.62 388.67,371.95 387.92,371.28 387.18,370.61 386.44,369.94 385.71,369.26 384.98,368.58 384.25,367.89 383.52,367.21 382.80,366.52 382.08,365.83 381.36,365.13 380.64,364.43 379.92,363.74 379.21,363.04 378.49,362.34 377.78,361.63 377.07,360.93 376.36,360.22 375.66,359.52 374.95,358.81 374.24,358.10 373.54,357.39 372.83,356.69 372.12,355.98 369.03,352.87">
        <lane id="90_0" index="0" speed="13.90" length="859.56" width="4.70" shape="275.04,136.67 275.09,125.84 275.10,124.28 275.11,123.28 275.11,122.27 275.12,121.27 275.13,120.27 275.14,119.27 275.14,118.27 275.16,117.26 275.17,116.26 275.18,115.25 275.20,114.25 275.22,113.25 275.24,112.24 275.26,111.23 275.29,110.23 275.32,109.22 275.35,108.21 275.38,107.21 275.42,106.20 275.47,105.19 275.51,104.18 275.56,103.18 275.62,102.17 275.68,101.16 275.74,100.15 275.81,99.14 275.88,98.13 275.96,97.12 276.04,96.11 276.13,95.10 276.23,94.10 276.33,93.09 276.44,92.08 276.55,91.07 276.67,90.06 276.80,89.05 276.93,88.05 277.07,87.04 277.22,86.03 277.37,85.03 277.54,84.02 277.71,83.02 277.89,82.01 278.07,81.01 278.27,80.01 278.47,79.01 278.68,78.01 278.91,77.02 279.14,76.02 279.37,75.03 279.62,74.04 279.88,73.05 280.15,72.06 280.43,71.07 280.85,69.63 284.28,60.09 288.69,50.85 294.00,42.10 300.16,33.93 307.12,26.42 314.80,19.65 323.12,13.69 332.00,8.59 341.35,4.41 351.07,1.20 361.06,-1.02 371.23,-2.23 381.46,-2.40 391.66,-1.54 401.73,0.34 411.55,3.22 421.03,7.07 430.08,11.87 438.60,17.54 446.50,24.05 453.71,31.32 454.84,32.59 455.51,33.38 456.17,34.16 456.82,34.95 457.47,35.74 458.10,36.54 458.73,37.34 459.35,38.15 459.97,38.97 460.58,39.79 461.18,40.61 461.77,41.44 462.36,42.27 462.94,43.11 463.51,43.95 464.08,44.80 464.64,45.64 465.19,46.49 465.74,47.35 466.29,48.21 466.83,49.07 467.36,49.93 467.88,50.80 468.41,51.67 468.92,52.54 469.44,53.41 469.94,54.29 470.44,55.17 470.94,56.05 471.44,56.93 471.93,57.81 472.41,58.70 472.89,59.59 473.37,60.48 473.85,61.37 474.32,62.26 474.79,63.15 475.25,64.04 475.71,64.94 476.17,65.84 476.63,66.73 477.09,67.63 477.54,68.53 477.99,69.42 478.44,70.32 478.88,71.22 479.33,72.12 479.77,73.02 480.22,73.92 480.66,74.82 481.10,75.72 481.54,76.62 481.98,77.52 482.42,78.42 554.74,226.35 555.55,228.00 555.99,228.90 556.43,229.80 556.86,230.70 557.30,231.60 557.74,232.51 558.17,233.41 558.61,234.32 559.04,235.22 559.47,236.13 559.90,237.04 560.33,237.95 560.75,238.87 561.17,239.78 561.59,240.70 562.01,241.62 562.42,242.54 562.83,243.46 563.24,244.38 563.64,245.31 564.04,246.24 564.43,247.17 564.82,248.11 565.20,249.04 565.58,249.98 565.96,250.92 566.32,251.87 566.69,252.82 567.05,253.77 567.40,254.72 567.74,255.68 568.08,256.64 568.41,257.60 568.74,258.56 569.05,259.53 569.36,260.50 569.66,261.47 569.96,262.45 570.24,263.43 570.52,264.41 570.79,265.40 571.40,267.77 573.34,277.72 574.38,287.89 574.47,298.10 573.61,308.29 571.82,318.35 569.11,328.20 565.51,337.76 561.03,346.94 555.73,355.68 549.64,363.88 542.82,371.49 535.32,378.44 527.22,384.66 518.58,390.11 509.47,394.74 499.97,398.51 490.17,401.39 480.14,403.35 469.97,404.37 459.76,404.45 449.57,403.59 439.52,401.79 429.67,399.08 420.11,395.46 410.93,390.97 402.20,385.66 400.57,384.55 399.73,383.95 398.90,383.36 398.08,382.75 397.26,382.15 396.45,381.53 395.64,380.91 394.84,380.28 394.04,379.65 393.25,379.01 392.46,378.37 391.68,377.72 390.90,377.07 390.13,376.41 389.36,375.75 388.59,375.09 387.83,374.42 387.07,373.75 386.32,373.07 385.57,372.39 384.82,371.71 384.08,371.02 383.34,370.33 382.61,369.64 381.87,368.95 381.14,368.26 380.42,367.56 379.69,366.86 378.97,366.16 378.25,365.46 377.53,364.75 376.81,364.05 376.10,363.34 375.38,362.63 374.67,361.93 373.96,361.22 373.25,360.51 372.54,359.80 371.84,359.09 371.13,358.38 370.42,357.67 367.33,354.57"/>
    </edge>
    <edge id="91" from="91.89" to="91.71" priority="1" shape="276.09,409.18 276.02,424.29 276.01,425.33 276.01,426.33 276.00,427.33 275.99,428.33 275.99,429.33 275.98,430.33 275.97,431.33 275.96,432.33 275.95,433.33 275.94,434.33 275.93,435.33 275.92,436.33 275.90,437.33 275.88,438.32 275.86,439.32 275.84,440.32 275.82,441.32 275.79,442.32 275.76,443.32 275.73,444.32 275.69,445.32 275.66,446.32 275.62,447.32 275.57,448.32 275.52,449.32 275.47,450.32 275.42,451.32 275.36,452.31 275.30,453.31 275.23,454.31 275.16,455.31 275.09,456.30 275.01,457.30 274.92,458.30 274.84,459.29 274.74,460.29 274.64,461.29 274.54,462.28 274.43,463.27 274.32,464.27 274.20,465.26 274.07,466.25 273.94,467.24 273.80,468.23 273.66,469.22 273.51,470.21 273.35,471.20 273.19,472.19 273.02,473.17 272.84,474.16 272.66,475.14 272.47,476.12 272.27,477.10 272.07,478.08 271.86,479.06 271.64,480.03 271.41,481.01 271.17,481.98 270.93,482.95 270.68,483.92 270.42,484.88 270.15,485.85 269.88,486.81 269.07,489.45 265.61,498.84 261.34,507.87 256.29,516.50 250.50,524.65 244.00,532.25 236.86,539.24 229.13,545.58 220.87,551.21 212.15,556.09 203.02,560.18 193.58,563.44 183.88,565.86 174.00,567.41 164.03,568.08 154.03,567.86 144.09,566.76 134.29,564.79 124.71,561.96 115.41,558.29 106.47,553.82 97.96,548.57 97.11,547.98 96.29,547.41 95.47,546.83 94.67,546.24 93.86,545.65 93.06,545.05 92.27,544.44 91.48,543.83 90.69,543.21 89.91,542.59 89.13,541.96 88.36,541.32 87.60,540.68 86.83,540.03 86.08,539.38 85.32,538.72 84.57,538.06 83.83,537.39 83.09,536.72 82.35,536.04 81.62,535.36 80.89,534.67 80.17,533.99 79.45,533.29 78.73,532.59 78.02,531.89 77.31,531.19 76.60,530.48 75.90,529.77 75.20,529.05 74.51,528.33 73.81,527.61 73.12,526.89 72.44,526.16 71.76,525.43 71.08,524.70 70.40,523.96 69.72,523.22 69.05,522.48 68.38,521.74 67.72,520.99 67.05,520.25 66.39,519.50 65.73,518.75 65.07,517.99 64.41,517.24 63.76,516.48 63.10,515.73 62.45,514.97 61.80,514.21 61.15,513.45 60.51,512.68 59.86,511.92 59.22,511.16 58.57,510.39 57.93,509.63 57.29,508.86 56.64,508.09 56.00,507.33 55.36,506.56 54.72,505.79 54.08,505.02 53.44,504.25 43.22,491.99 42.08,490.62 41.44,489.86 40.80,489.09 40.17,488.32 39.53,487.55 38.89,486.78 38.25,486.01 37.62,485.23 36.98,484.46 36.35,483.69 35.72,482.91 35.09,482.14 34.46,481.36 33.83,480.58 33.21,479.80 32.58,479.02 31.96,478.23 31.35,477.45 30.73,476.66 30.12,475.87 29.51,475.07 28.90,474.28 28.30,473.48 27.69,472.68 27.10,471.88 26.50,471.08 25.91,470.27 25.33,469.46 24.74,468.65 24.17,467.83 23.59,467.01 23.02,466.19 22.46,465.37 21.90,464.54 21.34,463.71 20.79,462.87 20.25,462.03 19.71,461.19 19.17,460.35 18.64,459.50 18.12,458.65 17.60,457.79 17.09,456.93 16.59,456.07 16.09,455.20 15.60,454.33 15.12,453.45 14.26,451.86 9.95,442.83 6.39,433.49 3.60,423.89 1.60,414.10 0.39,404.17 0.00,394.18 0.42,384.20 1.64,374.27 3.67,364.48 6.49,354.89 10.07,345.56 14.40,336.55 19.45,327.92 25.18,319.72 31.55,312.02 38.53,304.87 46.07,298.30 54.11,292.36 62.61,287.10 71.51,282.54 80.75,278.72 90.26,275.66 100.00,273.39 101.75,273.06 102.74,272.89 103.72,272.73 104.71,272.58 105.70,272.43 106.69,272.29 107.68,272.15 108.67,272.03 109.67,271.91 110.66,271.79 111.65,271.68 112.65,271.58 113.64,271.48 114.64,271.39 115.64,271.31 116.63,271.23 117.63,271.16 118.63,271.09 119.63,271.02 120.62,270.96 121.62,270.91 122.62,270.86 123.62,270.81 124.62,270.77 125.62,270.73 126.62,270.70 127.62,270.67 128.62,270.64 129.62,270.62 130.62,270.60 131.62,270.58 132.62,270.56 133.62,270.55 134.62,270.54 135.62,270.53 136.62,270.52 137.62,270.52 138.62,270.52 139.62,270.52 140.62,270.52 141.62,270.52 142.62,270.52 143.62,270.52 144.62,270.53 145.62,270.53 146.62,270.54 147.62,270.54 157.03,270.59">