<?xml version="1.0" encoding="UTF-8"?>

<!-- generated on Fri Feb 21 16:21:48 2014 by SUMO netconvert Version dev-SVN-r15637
<?xml version="1.0" encoding="UTF-8"?>

<configuration xmlns:xsi="http://www.w3.org/2001/XMLSchema-instance" xsi:noNamespaceSchemaLocation="http://sumo-sim.org/xsd/netconvertConfiguration.xsd">

    <input>
        <node-files value="input_plain.nod.xml"/>
        <edge-files value="input_plain.edg.xml"/>
    </input>

    <output>
        <plain-output-prefix value="plain"/>
        <output.street-names value="true"/>
    </output>

    <processing>
        <ignore-errors.edge-type value="true"/>
        <roundabouts.guess value="true"/>
        <crossings.guess value="true"/>
    </processing>

    <report>
        <xml-validation value="never"/>
    </report>

</configuration>
-->

<connections version="0.13" xmlns:xsi="http://www.w3.org/2001/XMLSchema-instance" xsi:noNamespaceSchemaLocation="http://sumo-sim.org/xsd/connections_file.xsd">
    <connection from="-114024901" to="114949101#1" fromLane="0" toLane="0"/>
    <connection from="-114024901" to="-114949101#0" fromLane="0" toLane="0"/>
    <connection from="-114024901" to="114024901" fromLane="0" toLane="0"/>

    <connection from="-114949101#0" to="-24214694#3" fromLane="0" toLane="1"/>
    <connection from="-114949101#0" to="24214694#5" fromLane="0" toLane="1"/>
    <connection from="-114949101#0" to="114024900" fromLane="0" toLane="0"/>

    <connection from="-115227682#0" to="-26816590#0" fromLane="0" toLane="0"/>
    <connection from="-115227682#0" to="26816590#1" fromLane="0" toLane="0"/>
    <connection from="-115227682#0" to="-26816553" fromLane="0" toLane="0"/>

    <connection from="-115227682#1" to="122868966" fromLane="0" toLane="0"/>
    <connection from="-115227682#1" to="-115227682#0" fromLane="0" toLane="0"/>
    <connection from="-115227682#1" to="115227682#1" fromLane="0" toLane="0"/>

    <connection from="-122666828#0" to="142575690#7" fromLane="0" toLane="1"/>
    <connection from="-122666828#0" to="-142575690#6" fromLane="0" toLane="1"/>
    <connection from="-122666828#0" to="122666828#0" fromLane="0" toLane="0"/>

    <connection from="-122666828#1" to="-122666828#0" fromLane="0" toLane="0"/>
    <connection from="-122666828#1" to="128648605" fromLane="0" toLane="0"/>
    <connection from="-122666828#1" to="122666828#1" fromLane="0" toLane="0"/>

    <connection from="-122868966" to="-115227682#0" fromLane="0" toLane="0"/>
    <connection from="-122868966" to="115227682#1" fromLane="0" toLane="0"/>
    <connection from="-122868966" to="122868966" fromLane="0" toLane="0"/>

    <connection from="-133858189" to="70214888#1" fromLane="0" toLane="0"/>
    <connection from="-133858189" to="-70214888#0" fromLane="0" toLane="0"/>
    <connection from="-133858189" to="133858189" fromLane="0" toLane="0"/>

    <connection from="-133858466" to="142575659#1" fromLane="0" toLane="1"/>
    <connection from="-133858466" to="-142575659#0" fromLane="0" toLane="1"/>
    <connection from="-133858466" to="133858466" fromLane="0" toLane="0"/>

    <connection from="-133858467#0" to="70214888#2" fromLane="0" toLane="0"/>
    <connection from="-133858467#0" to="-70214888#1" fromLane="0" toLane="0"/>
    <connection from="-133858467#0" to="133858467#0" fromLane="0" toLane="0"/>

    <connection from="-133858467#1" to="-133858467#2" fromLane="0" toLane="0"/>
    <connection from="-133858467#1" to="-133858467#0" fromLane="0" toLane="0"/>
    <connection from="-133858467#1" to="133858467#1" fromLane="0" toLane="0"/>

    <connection from="-133858467#2" to="-133858467#1" fromLane="0" toLane="0"/>
    <connection from="-133858467#2" to="133858467#2" fromLane="0" toLane="0"/>

    <connection from="-135777010#0" to="135777011#0" fromLane="1" toLane="1"/>
    <connection from="-135777010#0" to="135777010#0" fromLane="1" toLane="1"/>

    <connection from="-135777010#1" to="-135777010#0" fromLane="1" toLane="1"/>
    <connection from="-135777010#1" to="-38915289" fromLane="1" toLane="1"/>
    <connection from="-135777010#1" to="135777010#1" fromLane="1" toLane="1"/>

    <connection from="-135777010#2" to="-135777010#1" fromLane="1" toLane="1"/>
    <connection from="-135777010#2" to="-142575657#1" fromLane="1" toLane="1"/>
    <connection from="-135777010#2" to="135777010#2" fromLane="1" toLane="1"/>

    <connection from="-135777011#4" to="135777010#0" fromLane="1" toLane="1"/>
    <connection from="-135777011#4" to="135777011#0" fromLane="1" toLane="1"/>

    <connection from="-135777011#5" to="-135777011#4" fromLane="1" toLane="1"/>
    <connection from="-135777011#5" to="135777011#5" fromLane="1" toLane="1"/>

    <connection from="-138624421#0" to="-52460499#0" fromLane="0" toLane="1"/>
    <connection from="-138624421#0" to="52460499#1" fromLane="0" toLane="1"/>
    <connection from="-138624421#0" to="138624421#0" fromLane="0" toLane="0"/>

    <connection from="-138624421#1" to="-138624421#0" fromLane="0" toLane="0"/>
    <connection from="-138624421#1" to="138624445#0" fromLane="0" toLane="0"/>
    <connection from="-138624421#1" to="138624421#1" fromLane="0" toLane="0"/>

    <connection from="-138624421#2" to="24791996#0" fromLane="0" toLane="0"/>
    <connection from="-138624421#2" to="-138624421#1" fromLane="0" toLane="0"/>
    <connection from="-138624421#2" to="138624421#2" fromLane="0" toLane="0"/>

    <connection from="-138624421#3" to="-138624421#2" fromLane="0" toLane="0"/>
    <connection from="-138624421#3" to="-138624445#1" fromLane="0" toLane="0"/>
    <connection from="-138624421#3" to="138624421#3" fromLane="0" toLane="0"/>

    <connection from="-138624421#4" to="180239877" fromLane="0" toLane="0"/>
    <connection from="-138624421#4" to="-138624421#3" fromLane="0" toLane="0"/>
    <connection from="-138624421#4" to="138624421#4" fromLane="0" toLane="0"/>

    <connection from="-138624432" to="-52460499#1" fromLane="0" toLane="1"/>
    <connection from="-138624432" to="52460499#2" fromLane="0" toLane="1"/>
    <connection from="-138624432" to="138624432" fromLane="0" toLane="0"/>

    <connection from="-138624445#0" to="138624421#1" fromLane="0" toLane="0"/>
    <connection from="-138624445#0" to="-138624421#0" fromLane="0" toLane="0"/>
    <connection from="-138624445#0" to="138624445#0" fromLane="0" toLane="0"/>

    <connection from="-138624445#1" to="-138624445#0" fromLane="0" toLane="0"/>
    <connection from="-138624445#1" to="-138624432" fromLane="0" toLane="0"/>
    <connection from="-138624445#1" to="138624445#1" fromLane="0" toLane="0"/>

    <connection from="-141968799" to="141968799" fromLane="1" toLane="1"/>

    <connection from="-141968830#0" to="-141968799" fromLane="1" toLane="1"/>
    <connection from="-141968830#0" to="141968830#0" fromLane="1" toLane="1"/>

    <connection from="-141968830#1" to="-152447118" fromLane="1" toLane="1"/>
    <connection from="-141968830#1" to="-141968830#0" fromLane="1" toLane="1"/>
    <connection from="-141968830#1" to="141968830#1" fromLane="1" toLane="1"/>

    <connection from="-141968853#0" to="141968814" fromLane="1" toLane="1"/>
    <connection from="-141968853#0" to="141968853#0" fromLane="1" toLane="1"/>

    <connection from="-141968853#1" to="-141968853#0" fromLane="1" toLane="1"/>
    <connection from="-141968853#1" to="141968853#1" fromLane="1" toLane="1"/>

    <connection from="-141968853#2" to="-141968853#1" fromLane="1" toLane="1"/>
    <connection from="-141968853#2" to="141968853#2" fromLane="1" toLane="1"/>

    <connection from="-142575657#0" to="-143308521#5" fromLane="1" toLane="1"/>
    <connection from="-142575657#0" to="-24791993" fromLane="1" toLane="0"/>
    <connection from="-142575657#0" to="143308521#7" fromLane="1" toLane="1"/>
    <connection from="-142575657#0" to="142575657#0" fromLane="1" toLane="1"/>

    <connection from="-142575657#1" to="207517674" fromLane="1" toLane="0"/>
    <connection from="-142575657#1" to="-142575657#0" fromLane="1" toLane="1"/>
    <connection from="-142575657#1" to="142575657#1" fromLane="1" toLane="1"/>

    <connection from="-142575658#0" to="142575699#2" fromLane="1" toLane="1"/>
    <connection from="-142575658#0" to="-142575699#1" fromLane="1" toLane="1"/>
    <connection from="-142575658#0" to="142575658#0" fromLane="1" toLane="1"/>

    <connection from="-142575658#1" to="-143308562#5" fromLane="1" toLane="1"/>
    <connection from="-142575658#1" to="-142575658#0" fromLane="1" toLane="1"/>
    <connection from="-142575658#1" to="71595976" fromLane="1" toLane="0"/>
    <connection from="-142575658#1" to="142575658#1" fromLane="1" toLane="1"/>

    <connection from="-142575658#2" to="-142575658#1" fromLane="1" toLane="1"/>
    <connection from="-142575658#2" to="142575658#2" fromLane="1" toLane="1"/>

    <connection from="-142575659#0" to="-71028774#1" fromLane="1" toLane="1"/>
    <connection from="-142575659#0" to="142575659#0" fromLane="1" toLane="1"/>

    <connection from="-142575659#1" to="-142575659#0" fromLane="1" toLane="1"/>
    <connection from="-142575659#1" to="133858466" fromLane="1" toLane="0"/>
    <connection from="-142575659#1" to="142575659#1" fromLane="1" toLane="1"/>

    <connection from="-142575659#2" to="-142575659#1" fromLane="1" toLane="1"/>
    <connection from="-142575659#2" to="-70214888#3" fromLane="1" toLane="0"/>
    <connection from="-142575659#2" to="142575659#2" fromLane="1" toLane="1"/>

    <connection from="-142575673#0" to="-142575679#5" fromLane="1" toLane="1"/>
    <connection from="-142575673#0" to="142575679#6" fromLane="1" toLane="1"/>
    <connection from="-142575673#0" to="142575673#0" fromLane="1" toLane="1"/>

    <connection from="-142575673#1" to="47765615#0" fromLane="1" toLane="0"/>
    <connection from="-142575673#1" to="-142575673#0" fromLane="1" toLane="1"/>
    <connection from="-142575673#1" to="142575673#1" fromLane="1" toLane="1"/>

    <connection from="-142575679#0" to="143308521#0" fromLane="1" toLane="1"/>
    <connection from="-142575679#0" to="38915289" fromLane="1" toLane="1"/>
    <connection from="-142575679#0" to="142575679#0" fromLane="1" toLane="1"/>

    <connection from="-142575679#2" to="47765623#0" fromLane="1" toLane="0"/>
    <connection from="-142575679#2" to="-142575679#0" fromLane="1" toLane="1"/>
    <connection from="-142575679#2" to="142575679#1" fromLane="1" toLane="1"/>

    <connection from="-142575679#3" to="-142575679#2" fromLane="1" toLane="1"/>
    <connection from="-142575679#3" to="142575720#0" fromLane="1" toLane="0"/>
    <connection from="-142575679#3" to="142575679#3" fromLane="1" toLane="1"/>

    <connection from="-142575679#4" to="47773406" fromLane="1" toLane="0"/>
    <connection from="-142575679#4" to="-142575679#3" fromLane="1" toLane="1"/>
    <connection from="-142575679#4" to="142575679#4" fromLane="1" toLane="1"/>

    <connection from="-142575679#5" to="-142575679#4" fromLane="1" toLane="1"/>
    <connection from="-142575679#5" to="142575679#5" fromLane="1" toLane="1"/>

    <connection from="-142575679#6" to="142575673#0" fromLane="1" toLane="1"/>
    <connection from="-142575679#6" to="-142575679#5" fromLane="1" toLane="1"/>
    <connection from="-142575679#6" to="142575679#6" fromLane="1" toLane="1"/>

    <connection from="-142575679#7" to="-142575679#6" fromLane="1" toLane="1"/>
    <connection from="-142575679#7" to="142575679#7" fromLane="1" toLane="1"/>

    <connection from="-142575679#8" to="-142575679#7" fromLane="1" toLane="1"/>
    <connection from="-142575679#8" to="142575725#0" fromLane="1" toLane="0"/>
    <connection from="-142575679#8" to="142575679#8" fromLane="1" toLane="1"/>

    <connection from="-142575690#0" to="-143308562#2" fromLane="1" toLane="1"/>
    <connection from="-142575690#0" to="-142575673#1" fromLane="1" toLane="1"/>
    <connection from="-142575690#0" to="143308562#3" fromLane="1" toLane="1"/>
    <connection from="-142575690#0" to="142575690#0" fromLane="1" toLane="1"/>

    <connection from="-142575690#1" to="-142575659#2" fromLane="1" toLane="1"/>
    <connection from="-142575690#1" to="-142575690#0" fromLane="1" toLane="1"/>
    <connection from="-142575690#1" to="142575690#1" fromLane="1" toLane="1"/>

    <connection from="-142575690#2" to="-142575690#1" fromLane="1" toLane="1"/>
    <connection from="-142575690#2" to="143308628" fromLane="1" toLane="0"/>
    <connection from="-142575690#2" to="142575690#2" fromLane="1" toLane="1"/>

    <connection from="-142575690#3" to="-142575690#2" fromLane="1" toLane="1"/>
    <connection from="-142575690#3" to="142575690#3" fromLane="1" toLane="1"/>

    <connection from="-142575690#4" to="-142575690#3" fromLane="1" toLane="1"/>
    <connection from="-142575690#4" to="47770431#0" fromLane="1" toLane="0"/>
    <connection from="-142575690#4" to="142575690#4" fromLane="1" toLane="1"/>

    <connection from="-142575690#5" to="-142575690#4" fromLane="1" toLane="1"/>
    <connection from="-142575690#5" to="143308608" fromLane="1" toLane="0"/>
    <connection from="-142575690#5" to="142575690#5" fromLane="1" toLane="1"/>

    <connection from="-142575690#6" to="-142575690#5" fromLane="1" toLane="1"/>
    <connection from="-142575690#6" to="142575690#6" fromLane="1" toLane="1"/>

    <connection from="-142575690#7" to="-142575690#6" fromLane="1" toLane="1"/>
    <connection from="-142575690#7" to="122666828#0" fromLane="1" toLane="0"/>
    <connection from="-142575690#7" to="142575690#7" fromLane="1" toLane="1"/>

    <connection from="-142575699#0" to="-190083610#0" fromLane="1" toLane="1"/>
    <connection from="-142575699#0" to="190083610#1" fromLane="1" toLane="2"/>
    <connection from="-142575699#0" to="142575699#0" fromLane="1" toLane="1"/>

    <connection from="-142575699#1" to="-190083625#1" fromLane="1" toLane="0"/>
    <connection from="-142575699#1" to="-142575699#0" fromLane="1" toLane="1"/>
    <connection from="-142575699#1" to="142575699#1" fromLane="1" toLane="1"/>

    <connection from="-142575699#2" to="-142575699#1" fromLane="1" toLane="1"/>
    <connection from="-142575699#2" to="142575658#0" fromLane="1" toLane="1"/>
    <connection from="-142575699#2" to="142575699#2" fromLane="1" toLane="1"/>

    <connection from="-142575699#3" to="-190083623#1" fromLane="1" toLane="0"/>
    <connection from="-142575699#3" to="-142575699#2" fromLane="1" toLane="1"/>
    <connection from="-142575699#3" to="142575699#3" fromLane="1" toLane="1"/>

    <connection from="-142575720#0" to="142575679#3" fromLane="0" toLane="1"/>
    <connection from="-142575720#0" to="-142575679#2" fromLane="0" toLane="1"/>
    <connection from="-142575720#0" to="142575720#0" fromLane="0" toLane="0"/>

    <connection from="-142575720#3" to="146738852#0" fromLane="0" toLane="0"/>
    <connection from="-142575720#3" to="-142575720#0" fromLane="0" toLane="0"/>
    <connection from="-142575720#3" to="142575720#1" fromLane="0" toLane="0"/>

    <connection from="-142575725#0" to="142575679#8" fromLane="0" toLane="1"/>
    <connection from="-142575725#0" to="-142575679#7" fromLane="0" toLane="1"/>
    <connection from="-142575725#0" to="142575725#0" fromLane="0" toLane="0"/>

    <connection from="-142575725#1" to="-142575725#0" fromLane="0" toLane="0"/>
    <connection from="-142575725#1" to="-146738852#2" fromLane="0" toLane="0"/>
    <connection from="-142575725#1" to="142575725#1" fromLane="0" toLane="0"/>

    <connection from="-142575725#2" to="-142575725#1" fromLane="0" toLane="0"/>
    <connection from="-142575725#2" to="-142575720#3" fromLane="0" toLane="0"/>
    <connection from="-142575725#2" to="142575725#2" fromLane="0" toLane="0"/>

    <connection from="-143308485" to="-143308601#1" fromLane="1" toLane="1"/>
    <connection from="-143308485" to="143308601#2" fromLane="1" toLane="1"/>
    <connection from="-143308485" to="143308484" fromLane="1" toLane="1"/>

    <connection from="-143308515" to="143308566#0" fromLane="1" toLane="1"/>
    <connection from="-143308515" to="143308700#0" fromLane="1" toLane="0"/>
    <connection from="-143308515" to="71960633#1" fromLane="1" toLane="1"/>
    <connection from="-143308515" to="143308515" fromLane="1" toLane="1"/>

    <connection from="-143308521#0" to="38915289" fromLane="1" toLane="1"/>
    <connection from="-143308521#0" to="142575679#0" fromLane="1" toLane="1"/>
    <connection from="-143308521#0" to="143308521#0" fromLane="1" toLane="1"/>

    <connection from="-143308521#1" to="-222737701#1" fromLane="1" toLane="0"/>
    <connection from="-143308521#1" to="-143308521#0" fromLane="1" toLane="1"/>
    <connection from="-143308521#1" to="143308521#1" fromLane="1" toLane="1"/>

    <connection from="-143308521#10" to="-143308521#9" fromLane="1" toLane="1"/>
    <connection from="-143308521#10" to="158236729#1" fromLane="1" toLane="0"/>
    <connection from="-143308521#10" to="143308521#10" fromLane="1" toLane="1"/>

    <connection from="-143308521#3" to="-143308521#1" fromLane="1" toLane="1"/>
    <connection from="-143308521#3" to="207517673" fromLane="1" toLane="0"/>
    <connection from="-143308521#3" to="143308695#1" fromLane="1" toLane="0"/>
    <connection from="-143308521#3" to="143308521#2" fromLane="1" toLane="1"/>

    <connection from="-143308521#4" to="-143308521#3" fromLane="1" toLane="1"/>
    <connection from="-143308521#4" to="143308562#0" fromLane="1" toLane="1"/>
    <connection from="-143308521#4" to="143308521#4" fromLane="1" toLane="1"/>

    <connection from="-143308521#5" to="-143308521#4" fromLane="1" toLane="1"/>
    <connection from="-143308521#5" to="-149670370" fromLane="1" toLane="0"/>
    <connection from="-143308521#5" to="143308521#5" fromLane="1" toLane="1"/>

    <connection from="-143308521#7" to="142575657#0" fromLane="1" toLane="1"/>
    <connection from="-143308521#7" to="-143308521#5" fromLane="1" toLane="1"/>
    <connection from="-143308521#7" to="-24791993" fromLane="1" toLane="0"/>
    <connection from="-143308521#7" to="143308521#7" fromLane="1" toLane="1"/>

    <connection from="-143308521#8" to="-143308521#7" fromLane="1" toLane="1"/>
    <connection from="-143308521#8" to="-149670374" fromLane="1" toLane="0"/>
    <connection from="-143308521#8" to="143308521#8" fromLane="1" toLane="1"/>

    <connection from="-143308521#9" to="-143308521#8" fromLane="1" toLane="1"/>
    <connection from="-143308521#9" to="142575693#0" fromLane="1" toLane="1"/>
    <connection from="-143308521#9" to="143308521#9" fromLane="1" toLane="1"/>

    <connection from="-143308562#0" to="143308521#4" fromLane="1" toLane="1"/>
    <connection from="-143308562#0" to="-143308521#3" fromLane="1" toLane="1"/>
    <connection from="-143308562#0" to="143308562#0" fromLane="1" toLane="1"/>

    <connection from="-143308562#1" to="-143308562#0" fromLane="1" toLane="1"/>
    <connection from="-143308562#1" to="-47765623#2" fromLane="1" toLane="0"/>
    <connection from="-143308562#1" to="143308562#1" fromLane="1" toLane="1"/>

    <connection from="-143308562#2" to="-143308562#1" fromLane="1" toLane="1"/>
    <connection from="-143308562#2" to="143308562#2" fromLane="1" toLane="1"/>

    <connection from="-143308562#3" to="142575690#0" fromLane="1" toLane="1"/>
    <connection from="-143308562#3" to="-143308562#2" fromLane="1" toLane="1"/>
    <connection from="-143308562#3" to="-142575673#1" fromLane="1" toLane="1"/>
    <connection from="-143308562#3" to="143308562#3" fromLane="1" toLane="1"/>

    <connection from="-143308562#5" to="46039050#6" fromLane="1" toLane="1"/>
    <connection from="-143308562#5" to="-143308562#3" fromLane="1" toLane="1"/>
    <connection from="-143308562#5" to="143308532#4" fromLane="1" toLane="2"/>
    <connection from="-143308562#5" to="143308562#5" fromLane="1" toLane="1"/>

    <connection from="-143308566#0" to="143308700#0" fromLane="1" toLane="0"/>
    <connection from="-143308566#0" to="71960633#1" fromLane="1" toLane="1"/>
    <connection from="-143308566#0" to="143308515" fromLane="1" toLane="1"/>
    <connection from="-143308566#0" to="143308566#0" fromLane="1" toLane="1"/>

    <connection from="-143308566#2" to="-59302643" fromLane="1" toLane="0"/>
    <connection from="-143308566#2" to="-143308566#0" fromLane="1" toLane="1"/>
    <connection from="-143308566#2" to="-143308485" fromLane="1" toLane="1"/>
    <connection from="-143308566#2" to="143308566#2" fromLane="1" toLane="1"/>

    <connection from="-143308576" to="-71960633#2" fromLane="1" toLane="1"/>
    <connection from="-143308576" to="46150481#0" fromLane="1" toLane="1"/>
    <connection from="-143308576" to="46150481#0" fromLane="2" toLane="2"/>
    <connection from="-143308576" to="-169076556#3" fromLane="2" toLane="1"/>
    <connection from="-143308576" to="143308576" fromLane="2" toLane="2"/>

    <connection from="-143308600#0" to="143308600#0" fromLane="0" toLane="0"/>

    <connection from="-143308600#1" to="-143308600#0" fromLane="0" toLane="0"/>
    <connection from="-143308600#1" to="143308600#1" fromLane="0" toLane="0"/>

    <connection from="-143308600#2" to="-24791992" fromLane="0" toLane="0"/>
    <connection from="-143308600#2" to="-143308600#1" fromLane="0" toLane="0"/>
    <connection from="-143308600#2" to="143308600#2" fromLane="0" toLane="0"/>

    <connection from="-143308600#3" to="-143308600#2" fromLane="0" toLane="0"/>
    <connection from="-143308600#3" to="143308600#3" fromLane="0" toLane="0"/>

    <connection from="-143308601#0" to="143308601#0" fromLane="1" toLane="1"/>

    <connection from="-143308601#1" to="-143308515" fromLane="1" toLane="1"/>
    <connection from="-143308601#1" to="-143308601#0" fromLane="1" toLane="1"/>
    <connection from="-143308601#1" to="143308601#1" fromLane="1" toLane="1"/>

    <connection from="-143308601#2" to="143308484" fromLane="1" toLane="1"/>
    <connection from="-143308601#2" to="-143308601#1" fromLane="1" toLane="1"/>
    <connection from="-143308601#2" to="143308601#2" fromLane="1" toLane="1"/>

    <connection from="-143308618" to="71960633#2" fromLane="0" toLane="1"/>
    <connection from="-143308618" to="-71960633#1" fromLane="0" toLane="1"/>
    <connection from="-143308618" to="143308618" fromLane="0" toLane="0"/>

    <connection from="-143308626" to="143308700#1" fromLane="0" toLane="0"/>
    <connection from="-143308626" to="-143308700#0" fromLane="0" toLane="0"/>
    <connection from="-143308626" to="143308626" fromLane="0" toLane="0"/>

    <connection from="-143308628" to="142575690#2" fromLane="0" toLane="1"/>
    <connection from="-143308628" to="-142575690#1" fromLane="0" toLane="1"/>
    <connection from="-143308628" to="143308628" fromLane="0" toLane="0"/>

    <connection from="-143308673#0" to="169076556#1" fromLane="0" toLane="1"/>
    <connection from="-143308673#0" to="-169076556#0" fromLane="0" toLane="1"/>
    <connection from="-143308673#0" to="143308673#0" fromLane="0" toLane="0"/>

    <connection from="-143308673#1" to="-143308673#0" fromLane="0" toLane="0"/>
    <connection from="-143308673#1" to="143308673#1" fromLane="0" toLane="0"/>

    <connection from="-143308685#0" to="142575690#5" fromLane="0" toLane="1"/>
    <connection from="-143308685#0" to="-142575690#4" fromLane="0" toLane="1"/>
    <connection from="-143308685#0" to="143308608" fromLane="0" toLane="0"/>

    <connection from="-143308685#1" to="-143308685#0" fromLane="0" toLane="0"/>
    <connection from="-143308685#1" to="174657429" fromLane="0" toLane="0"/>
    <connection from="-143308685#1" to="143308685#1" fromLane="0" toLane="0"/>

    <connection from="-143308695#1" to="143308521#2" fromLane="0" toLane="1"/>
    <connection from="-143308695#1" to="-143308521#1" fromLane="0" toLane="1"/>
    <connection from="-143308695#1" to="207517673" fromLane="0" toLane="0"/>
    <connection from="-143308695#1" to="143308695#1" fromLane="0" toLane="0"/>

    <connection from="-143308700#0" to="71960633#1" fromLane="0" toLane="1"/>
    <connection from="-143308700#0" to="143308515" fromLane="0" toLane="1"/>
    <connection from="-143308700#0" to="143308566#0" fromLane="0" toLane="1"/>
    <connection from="-143308700#0" to="143308700#0" fromLane="0" toLane="0"/>

    <connection from="-143308700#1" to="-143308700#0" fromLane="0" toLane="0"/>
    <connection from="-143308700#1" to="143308626" fromLane="0" toLane="0"/>
    <connection from="-143308700#1" to="143308700#1" fromLane="0" toLane="0"/>

    <connection from="-145586617#0" to="145586617#0" fromLane="1" toLane="1"/>

    <connection from="-145586617#1" to="172288752" fromLane="1" toLane="0"/>
    <connection from="-145586617#1" to="-145586617#0" fromLane="1" toLane="1"/>
    <connection from="-145586617#1" to="145586617#1" fromLane="1" toLane="1"/>

    <connection from="-145586617#2" to="31763024#0" fromLane="1" toLane="1"/>
    <connection from="-145586617#2" to="-145586617#1" fromLane="1" toLane="1"/>
    <connection from="-145586617#2" to="145586617#2" fromLane="1" toLane="1"/>

    <connection from="-145586617#3" to="-145586617#2" fromLane="1" toLane="1"/>
    <connection from="-145586617#3" to="145586617#3" fromLane="1" toLane="1"/>

    <connection from="-145586617#5" to="155586403" fromLane="1" toLane="1"/>
    <connection from="-145586617#5" to="-145586617#3" fromLane="1" toLane="1"/>
    <connection from="-145586617#5" to="-212446298#3" fromLane="1" toLane="0"/>
    <connection from="-145586617#5" to="145586617#5" fromLane="1" toLane="1"/>

    <connection from="-145586617#7" to="-145586617#5" fromLane="1" toLane="1"/>
    <connection from="-145586617#7" to="-212449534#1" fromLane="1" toLane="0"/>
    <connection from="-145586617#7" to="145586617#6" fromLane="1" toLane="1"/>

    <connection from="-146738852#0" to="-142575720#0" fromLane="0" toLane="0"/>
    <connection from="-146738852#0" to="142575720#1" fromLane="0" toLane="0"/>
    <connection from="-146738852#0" to="146738852#0" fromLane="0" toLane="0"/>

    <connection from="-146738852#1" to="-146738852#0" fromLane="0" toLane="0"/>
    <connection from="-146738852#1" to="146738850#1" fromLane="0" toLane="0"/>
    <connection from="-146738852#1" to="146738852#1" fromLane="0" toLane="0"/>

    <connection from="-146738852#2" to="-146738852#1" fromLane="0" toLane="0"/>
    <connection from="-146738852#2" to="146738851#1" fromLane="0" toLane="0"/>
    <connection from="-146738852#2" to="146738852#2" fromLane="0" toLane="0"/>

    <connection from="-149663200" to="-114949101#0" fromLane="0" toLane="0"/>
    <connection from="-149663200" to="114024901" fromLane="0" toLane="0"/>
    <connection from="-149663200" to="114949101#1" fromLane="0" toLane="0"/>

    <connection from="-149670370" to="-149670384#0" fromLane="0" toLane="0"/>
    <connection from="-149670370" to="24791993" fromLane="0" toLane="0"/>
    <connection from="-149670370" to="149670384#1" fromLane="0" toLane="0"/>

    <connection from="-149670373#0" to="142575693#1" fromLane="0" toLane="0"/>
    <connection from="-149670373#0" to="24733616" fromLane="0" toLane="0"/>

    <connection from="-149670374" to="30978404#0" fromLane="0" toLane="0"/>
    <connection from="-149670374" to="149670376" fromLane="0" toLane="0"/>
    <connection from="-149670374" to="149670374" fromLane="0" toLane="0"/>

    <connection from="-149670376" to="149670374" fromLane="0" toLane="0"/>
    <connection from="-149670376" to="30978404#0" fromLane="0" toLane="0"/>
    <connection from="-149670376" to="149670376" fromLane="0" toLane="0"/>

    <connection from="-149670379#0" to="-149670376" fromLane="0" toLane="0"/>
    <connection from="-149670379#0" to="149670380#0" fromLane="0" toLane="0"/>
    <connection from="-149670379#0" to="149670379#0" fromLane="0" toLane="0"/>

    <connection from="-149670380#0" to="149670379#0" fromLane="0" toLane="0"/>
    <connection from="-149670380#0" to="-149670376" fromLane="0" toLane="0"/>
    <connection from="-149670380#0" to="149670380#0" fromLane="0" toLane="0"/>

    <connection from="-149670380#1" to="-149670380#0" fromLane="0" toLane="0"/>
    <connection from="-149670380#1" to="70133621#2" fromLane="0" toLane="0"/>
    <connection from="-149670380#1" to="149670380#1" fromLane="0" toLane="0"/>

    <connection from="-149670384#0" to="-149670380#1" fromLane="0" toLane="0"/>
    <connection from="-149670384#0" to="-30978404#1" fromLane="0" toLane="0"/>
    <connection from="-149670384#0" to="149670380#2" fromLane="0" toLane="0"/>

    <connection from="-152447118" to="152447118" fromLane="1" toLane="1"/>

    <connection from="-152709214" to="-169076556#1" fromLane="0" toLane="1"/>
    <connection from="-152709214" to="169076556#2" fromLane="0" toLane="1"/>
    <connection from="-152709214" to="152709214" fromLane="0" toLane="0"/>

    <connection from="-156071615#0" to="142575693#2" fromLane="0" toLane="0"/>
    <connection from="-156071615#0" to="149670382" fromLane="0" toLane="0"/>

    <connection from="-156071615#1" to="-156071615#0" fromLane="0" toLane="0"/>
    <connection from="-156071615#1" to="156294408" fromLane="0" toLane="0"/>
    <connection from="-156071615#1" to="156071615#1" fromLane="0" toLane="0"/>

    <connection from="-156071615#2" to="-24733617#0" fromLane="0" toLane="0"/>
    <connection from="-156071615#2" to="-156071615#1" fromLane="0" toLane="0"/>
    <connection from="-156071615#2" to="24733617#1" fromLane="0" toLane="0"/>
    <connection from="-156071615#2" to="156071615#2" fromLane="0" toLane="0"/>

    <connection from="-156071615#3" to="-156071615#2" fromLane="0" toLane="0"/>
    <connection from="-156071615#3" to="70133621#1" fromLane="0" toLane="0"/>
    <connection from="-156071615#3" to="156071615#3" fromLane="0" toLane="0"/>

    <connection from="-156294408" to="156071615#1" fromLane="0" toLane="0"/>
    <connection from="-156294408" to="-156071615#0" fromLane="0" toLane="0"/>
    <connection from="-156294408" to="156294408" fromLane="0" toLane="0"/>

    <connection from="-161788772" to="161788772" fromLane="0" toLane="0"/>
