<routes>
    <vType id="t" impatience="1.0"/>
    <vehicle id="ego" depart="0" departPos="400" type="t">
        <route edges="right2end end"/>
    </vehicle>

    <flow id="priority" begin="0" end="500" departPos="800" departSpeed="max" period="3.1">
        <route edges="middle end"/>
    </flow>
</routes>
