<?xml version="1.0" encoding="UTF-8"?>

<!-- generated on Wed Feb 26 12:19:27 2014 by SUMO netconvert Version dev-SVN-r15745
<?xml version="1.0" encoding="UTF-8"?>

<configuration xmlns:xsi="http://www.w3.org/2001/XMLSchema-instance" xsi:noNamespaceSchemaLocation="http://sumo-sim.org/xsd/netconvertConfiguration.xsd">

    <input>
        <osm-files value="osm.xml"/>
    </input>

    <output>
        <output-file value="net.net.xml"/>
    </output>

    <projection>
        <proj.utm value="true"/>
    </projection>

    <tls_building>
        <tls.discard-simple value="true"/>
    </tls_building>

    <processing>
        <no-internal-links value="true"/>
        <geometry.remove value="true"/>
        <roundabouts.guess value="true"/>
        <junctions.join value="true"/>
    </processing>

    <report>
        <verbose value="true"/>
        <xml-validation value="never"/>
    </report>

</configuration>
-->

<net version="0.13" xmlns:xsi="http://www.w3.org/2001/XMLSchema-instance" xsi:noNamespaceSchemaLocation="http://sumo-sim.org/xsd/net_file.xsd">

    <location netOffset="-395408.93,-5809112.45" convBoundary="0.00,0.00,5580.65,3531.77" origBoundary="13.460807,52.423029,13.543874,52.453954" projParameter="+proj=utm +zone=33 +ellps=WGS84 +datum=WGS84 +units=m +no_defs"/>

    <edge id="-114024901" from="1292264851" to="1292264836" priority="2" type="highway.service" shape="4528.30,399.61 4484.52,405.28 4478.94,409.38 4476.11,415.32 4486.50,500.85">
        <lane id="-114024901_0" index="0" allow="delivery" speed="5.56" length="143.80" shape="4528.51,401.25 4485.15,406.86 4480.25,410.47 4477.81,415.59 4487.57,495.96"/>
    </edge>
    <edge id="-114949101#0" from="1292264836" to="cluster_1292264830_1787023432" priority="2" type="highway.service" shape="4486.50,500.85 4436.11,507.44 4422.99,509.31">
        <lane id="-114949101#0_0" index="0" allow="delivery" speed="5.56" length="69.48" shape="4482.03,503.10 4436.32,509.07 4428.08,510.25"/>
    </edge>
    <edge id="-115227682#0" from="1371616230" to="1302814166" priority="2" type="highway.service" shape="4552.50,499.38 4497.57,564.22 4493.92,565.45">
        <lane id="-115227682#0_0" index="0" allow="delivery" speed="5.56" length="88.83" shape="4550.72,504.03 4500.05,563.85"/>
    </edge>
    <edge id="-115227682#1" from="294830953" to="1371616230" priority="2" type="highway.service" shape="4642.76,491.56 4633.58,501.68 4624.29,512.20 4620.81,513.42 4616.66,512.58 4570.46,476.33 4552.50,499.38">
        <lane id="-115227682#1_0" index="0" allow="delivery" speed="5.56" length="123.57" shape="4643.98,492.67 4634.81,502.79 4625.24,513.61 4620.93,515.13 4615.95,514.12 4570.74,478.65 4556.67,496.71"/>
    </edge>
    <edge id="-122666828#0" from="1370020144" to="1370020156" priority="2" type="highway.service" shape="4515.79,737.01 4540.25,746.76 4544.24,754.80 4536.19,777.11 4533.28,784.46">
        <lane id="-122666828#0_0" index="0" allow="delivery" speed="5.56" length="66.94" shape="4520.71,737.19 4541.45,745.46 4546.03,754.70 4537.75,777.67 4536.59,780.58"/>
    </edge>
    <edge id="-122666828#1" from="1370020147" to="1370020144" priority="2" type="highway.service">
        <lane id="-122666828#1_0" index="0" allow="delivery" speed="5.56" length="53.07" shape="4534.68,689.07 4518.90,733.20"/>
    </edge>
    <edge id="-122868966" from="1371616238" to="1371616230" priority="2" type="highway.service">
        <lane id="-122868966_0" index="0" allow="delivery" speed="5.56" length="36.87" shape="4579.97,524.02 4555.09,503.63"/>
    </edge>
    <edge id="-133858189" from="837749843" to="1472995248" priority="2" type="highway.service">
        <lane id="-133858189_0" index="0" allow="delivery" speed="5.56" length="26.44" shape="4381.86,835.49 4389.60,818.53"/>
    </edge>
    <edge id="-133858466" from="1472997323" to="1472997321" priority="2" type="highway.service">
        <lane id="-133858466_0" index="0" allow="delivery" speed="5.56" length="17.56" shape="4396.39,811.15 4400.03,804.14"/>
    </edge>
    <edge id="-133858467#0" from="1472997326" to="1472995247" priority="2" type="highway.service">
        <lane id="-133858467#0_0" index="0" allow="delivery" speed="5.56" length="38.17" shape="4339.29,825.70 4351.71,799.94"/>
    </edge>
    <edge id="-133858467#1" from="1472997325" to="1472997326" priority="2" type="highway.service" shape="4332.31,827.75 4327.36,837.70 4337.74,842.55 4342.68,832.60 4338.70,830.73">
        <lane id="-133858467#1_0" index="0" allow="delivery" speed="5.56" length="38.08" shape="4332.37,831.32 4329.59,836.92 4336.98,840.37 4340.13,834.02"/>
    </edge>
    <edge id="-133858467#2" from="1472997326" to="1472997325" priority="2" type="highway.service">
        <lane id="-133858467#2_0" index="0" allow="delivery" speed="5.56" length="7.05" shape="4334.48,830.59 4334.30,830.50"/>
    </edge>
    <edge id="-135777010#0" from="664166104" to="456893959" priority="5" type="highway.unclassified" shape="3904.61,1134.96 3898.58,1129.54 3862.30,1096.96 3859.86,1093.12 3857.02,1088.63 3853.72,1080.08 3851.58,1070.43 3852.36,1060.51 3876.48,928.62">
        <lane id="-135777010#0_0" index="0" speed="13.89" length="229.81" shape="3900.00,1133.03 3897.48,1130.77 3861.02,1098.04 3858.46,1094.00 3855.54,1089.38 3852.18,1080.67 3849.92,1070.55 3850.72,1060.38 3874.08,932.58"/>
    </edge>
    <edge id="-135777010#1" from="1560225335" to="664166104" priority="5" type="highway.unclassified" shape="4023.48,1243.35 4016.74,1237.44 3960.34,1186.17 3911.54,1141.59 3904.61,1134.96">
        <lane id="-135777010#1_0" index="0" speed="13.89" length="160.87" shape="4018.86,1241.50 4015.65,1238.68 3959.23,1187.39 3910.43,1142.81 3906.85,1139.38"/>
    </edge>
    <edge id="-135777010#2" from="311418359" to="1560225335" priority="5" type="highway.unclassified" shape="4444.71,1625.13 4389.28,1576.04 4374.62,1562.88 4368.70,1557.29 4361.97,1551.34 4321.87,1514.54 4306.10,1500.80 4295.48,1490.80 4278.93,1475.58 4270.44,1468.01 4265.88,1463.98 4213.61,1416.30 4203.72,1407.51 4200.45,1404.44 4148.89,1357.64 4142.09,1351.31 4135.85,1345.72 4029.32,1248.69 4023.48,1243.35">
        <lane id="-135777010#2_0" index="0" speed="13.89" length="568.52" shape="4443.62,1626.36 4388.18,1577.28 4373.52,1564.10 4367.57,1558.49 4360.88,1552.58 4320.75,1515.75 4305.01,1502.04 4294.34,1492.00 4277.82,1476.80 4269.34,1469.24 4264.78,1465.21 4212.49,1417.52 4202.63,1408.74 4199.32,1405.64 4147.78,1358.86 4140.97,1352.52 4134.75,1346.95 4028.21,1249.91 4025.86,1247.76"/>
    </edge>
    <edge id="-135777011#4" from="855356982" to="456893959" priority="5" type="highway.unclassified" shape="3917.28,705.32 3916.38,710.20 3905.20,770.71 3903.55,780.46 3901.63,790.97 3884.09,886.96 3876.48,928.62">
        <lane id="-135777011#4_0" index="0" speed="13.89" length="227.00" shape="3918.01,710.44 3906.82,771.01 3905.17,780.73 3903.25,791.26 3885.72,887.26 3878.79,925.19"/>
    </edge>
    <edge id="-135777011#5" from="2165987556" to="855356982" priority="5" type="highway.unclassified">
        <lane id="-135777011#5_0" index="0" speed="13.89" length="39.34" shape="3925.35,668.23 3919.19,703.92"/>
    </edge>
    <edge id="-138624421#0" from="1520040147" to="1520040140" priority="3" type="highway.living_street" shape="3394.28,1181.46 3351.48,1184.12 3311.72,1164.20">
        <lane id="-138624421#0_0" index="0" speed="2.78" length="87.35" shape="3391.51,1183.29 3351.14,1185.80 3315.31,1167.84"/>
    </edge>
    <edge id="-138624421#1" from="1520040064" to="1520040147" priority="3" type="highway.living_street" shape="3691.22,937.92 3689.36,942.30 3576.90,1071.90 3563.35,1086.71 3489.57,1174.69 3451.49,1177.74 3394.28,1181.46">
        <lane id="-138624421#1_0" index="0" speed="2.78" length="406.78" shape="3691.89,940.56 3690.78,943.18 3578.15,1072.98 3564.56,1087.82 3490.39,1176.28 3451.62,1179.38 3403.57,1182.51"/>
    </edge>
    <edge id="-138624421#2" from="1520040030" to="1520040064" priority="3" type="highway.living_street" shape="3655.89,875.05 3678.64,887.61 3691.38,930.88 3691.22,937.92">
        <lane id="-138624421#2_0" index="0" speed="2.78" length="78.14" shape="3660.32,875.61 3680.03,886.49 3693.03,930.66 3692.94,935.11"/>
    </edge>
    <edge id="-138624421#3" from="1906767056" to="1520040030" priority="3" type="highway.living_street">
        <lane id="-138624421#3_0" index="0" speed="2.78" length="23.74" shape="3640.13,863.91 3652.08,870.91"/>
    </edge>
    <edge id="-138624421#4" from="1520039998" to="1906767056" priority="3" type="highway.living_street">
        <lane id="-138624421#4_0" index="0" speed="2.78" length="143.03" shape="3513.27,798.29 3631.87,859.38"/>
    </edge>
    <edge id="-138624432" from="1520040104" to="1520040094" priority="3" type="highway.living_street">
        <lane id="-138624432_0" index="0" speed="2.78" length="120.62" shape="3512.75,1034.92 3415.53,982.75"/>
    </edge>
    <edge id="-138624445#0" from="1520040104" to="1520040147" priority="3" type="highway.living_street" shape="3518.41,1036.08 3511.66,1043.98 3394.28,1181.46">
        <lane id="-138624445#0_0" index="0" speed="2.78" length="191.16" shape="3516.07,1041.36 3512.92,1045.05 3401.51,1175.54"/>
    </edge>
    <edge id="-138624445#1" from="1520040030" to="1520040104" priority="3" type="highway.living_street" shape="3655.89,875.05 3525.32,1027.98 3518.41,1036.08">
        <lane id="-138624445#1_0" index="0" speed="2.78" length="211.73" shape="3653.65,880.22 3526.57,1029.06 3522.33,1034.02"/>
    </edge>
    <edge id="-141968799" from="1553912623" to="57343438" priority="6" type="highway.tertiary" shape="3319.36,776.57 3256.23,795.39 3242.87,802.41 3235.64,807.72 3229.12,813.63 3051.12,998.41 3045.70,1003.85 3033.89,1015.25 3023.98,1025.73 3004.74,1045.40 2964.01,1086.75 2920.25,1131.35 2893.22,1159.42 2877.69,1175.06 2850.94,1203.26 2839.02,1216.18 2809.75,1246.18 2794.77,1261.71">
        <lane id="-141968799_0" index="0" speed="8.33" length="722.81" shape="3319.83,778.16 3256.86,796.92 3243.64,803.87 3236.62,809.05 3230.23,814.85 3052.31,999.55 3046.87,1005.01 3035.04,1016.44 3025.18,1026.86 3005.92,1046.55 2965.19,1087.91 2921.43,1132.51 2894.41,1160.56 2878.86,1176.22 2852.13,1204.40 2840.24,1217.30 2810.94,1247.33 2795.96,1262.85"/>
    </edge>
    <edge id="-141968830#0" from="1552842740" to="1553912623" priority="6" type="highway.tertiary">
        <lane id="-141968830#0_0" index="0" speed="13.89" length="63.60" shape="3376.49,763.48 3319.88,778.14"/>
    </edge>
    <edge id="-141968830#1" from="1552842725" to="1552842740" priority="6" type="highway.tertiary" shape="3469.94,732.27 3401.00,754.33 3380.93,760.63">
        <lane id="-141968830#1_0" index="0" speed="13.89" length="101.39" shape="3474.44,732.56 3401.50,755.90 3385.58,760.90"/>
    </edge>
    <edge id="-141968853#0" from="663353215" to="473482356" priority="6" type="highway.tertiary" shape="3652.18,676.29 3595.42,693.69 3554.95,706.10">
        <lane id="-141968853#0_0" index="0" speed="13.89" length="118.00" shape="3649.70,678.78 3595.90,695.27 3541.71,711.88"/>
    </edge>
    <edge id="-141968853#1" from="663353216" to="663353215" priority="6" type="highway.tertiary" shape="3727.53,653.19 3662.25,673.21 3652.18,676.29">
        <lane id="-141968853#1_0" index="0" speed="13.89" length="78.82" shape="3724.99,655.70 3662.73,674.78 3655.63,676.96"/>
    </edge>
    <edge id="-141968853#2" from="301292499" to="663353216" priority="6" type="highway.tertiary">
        <lane id="-141968853#2_0" index="0" speed="13.89" length="117.68" shape="3838.89,620.79 3730.91,653.88"/>
    </edge>
    <edge id="-142575657#0" from="2247697355" to="cluster_1560224356_1560224368" priority="5" type="highway.unclassified" shape="4234.32,1011.07 4256.65,985.96 4307.54,929.85">
        <lane id="-142575657#0_0" index="0" speed="22.22" length="116.61" shape="4235.04,1007.78 4255.42,984.86 4302.43,933.04"/>
    </edge>
    <edge id="-142575657#1" from="1560225335" to="2247697355" priority="5" type="highway.unclassified" shape="4023.48,1243.35 4155.72,1097.37 4161.33,1091.38 4166.96,1084.73 4221.71,1025.26 4234.32,1011.07">
        <lane id="-142575657#1_0" index="0" speed="22.22" length="313.71" shape="4025.44,1238.73 4154.49,1096.27 4160.12,1090.26 4165.70,1083.66 4220.49,1024.14 4230.92,1012.41"/>
    </edge>
    <edge id="-142575658#0" from="1560223615" to="1560223591" priority="5" type="highway.unclassified">
        <lane id="-142575658#0_0" index="0" speed="22.22" length="113.86" shape="4239.54,534.88 4135.66,526.22"/>
    </edge>
    <edge id="-142575658#1" from="851572284" to="1560223615" priority="5" type="highway.unclassified">
        <lane id="-142575658#1_0" index="0" speed="22.22" length="131.18" shape="4372.33,544.80 4249.15,535.63"/>
    </edge>
    <edge id="-142575658#2" from="1560223635" to="851572284" priority="5" type="highway.unclassified">
        <lane id="-142575658#2_0" index="0" speed="22.22" length="51.40" shape="4421.18,548.13 4378.56,545.24"/>
    </edge>
    <edge id="-142575659#0" from="1472997321" to="38919841" priority="5" type="highway.unclassified">
        <lane id="-142575659#0_0" index="0" speed="22.22" length="37.80" shape="4408.64,801.20 4435.58,814.43"/>
    </edge>
    <edge id="-142575659#1" from="38919854" to="1472997321" priority="5" type="highway.unclassified">
        <lane id="-142575659#1_0" index="0" speed="22.22" length="92.83" shape="4326.59,760.92 4400.11,797.01"/>
    </edge>
    <edge id="-142575659#2" from="38919880" to="38919854" priority="5" type="highway.unclassified" shape="4273.84,710.43 4274.06,720.64 4275.36,725.86 4278.61,730.57 4286.46,736.05 4320.39,759.71">
        <lane id="-142575659#2_0" index="0" speed="22.22" length="72.25" shape="4275.61,715.79 4275.71,720.42 4276.89,725.17 4279.80,729.39 4287.40,734.70 4318.51,756.38"/>
    </edge>
    <edge id="-142575673#0" from="607601623" to="1560223905" priority="5" type="highway.unclassified">
        <lane id="-142575673#0_0" index="0" speed="22.22" length="60.32" shape="4174.30,699.45 4123.63,695.74"/>
    </edge>
    <edge id="-142575673#1" from="1560223943" to="607601623" priority="5" type="highway.unclassified" shape="4233.03,703.59 4224.11,701.84 4179.18,698.15">
        <lane id="-142575673#1_0" index="0" speed="22.22" length="54.16" shape="4227.63,704.21 4223.79,703.46 4183.79,700.19"/>
    </edge>
    <edge id="-142575679#0" from="607684229" to="1560224322" priority="5" type="highway.unclassified">
        <lane id="-142575679#0_0" index="0" speed="22.22" length="84.33" shape="4108.55,837.88 4103.68,911.40"/>
    </edge>
    <edge id="-142575679#2" from="1560224080" to="607684229" priority="5" type="highway.unclassified" shape="4110.95,789.09 4110.48,791.17 4109.71,801.01 4108.91,811.38 4107.23,832.96">
        <lane id="-142575679#2_0" index="0" speed="22.22" length="44.05" shape="4111.86,794.53 4111.36,801.13 4110.55,811.51 4109.24,828.38"/>
    </edge>
    <edge id="-142575679#3" from="607684208" to="1560224080" priority="5" type="highway.unclassified">
        <lane id="-142575679#3_0" index="0" speed="22.22" length="15.52" shape="4113.20,778.53 4112.87,784.27"/>
    </edge>
    <edge id="-142575679#4" from="1599958756" to="607684208" priority="5" type="highway.unclassified">
        <lane id="-142575679#4_0" index="0" speed="22.22" length="52.96" shape="4118.00,723.49 4113.90,769.01"/>
    </edge>
    <edge id="-142575679#5" from="1560223905" to="1599958756" priority="5" type="highway.unclassified">
        <lane id="-142575679#5_0" index="0" speed="22.22" length="27.20" shape="4120.24,698.58 4118.56,717.26"/>
    </edge>
    <edge id="-142575679#6" from="1599958752" to="1560223905" priority="5" type="highway.unclassified">
        <lane id="-142575679#6_0" index="0" speed="22.22" length="9.37" shape="4121.11,687.61 4121.00,689.14"/>
    </edge>
    <edge id="-142575679#7" from="1560223834" to="1599958752" priority="5" type="highway.unclassified">
        <lane id="-142575679#7_0" index="0" speed="22.22" length="30.36" shape="4123.07,658.95 4121.54,681.41"/>
    </edge>
    <edge id="-142575679#8" from="cluster_1560223721_1560223744_851572267_851572547_851572934_851573004" to="1560223834" priority="5" type="highway.unclassified" shape="4124.61,609.48 4123.94,619.55 4121.75,654.12">
        <lane id="-142575679#8_0" index="0" speed="22.22" length="49.46" shape="4125.93,614.46 4125.59,619.66 4123.70,649.45"/>
    </edge>
    <edge id="-142575690#0" from="38919880" to="1560223943" priority="5" type="highway.unclassified">
        <lane id="-142575690#0_0" index="0" speed="22.22" length="41.39" shape="4269.44,711.36 4237.76,706.05"/>
    </edge>
    <edge id="-142575690#1" from="283018845" to="38919880" priority="5" type="highway.unclassified">
        <lane id="-142575690#1_0" index="0" speed="22.22" length="21.98" shape="4290.62,714.78 4278.91,712.91"/>
    </edge>
    <edge id="-142575690#2" from="283018932" to="283018845" priority="5" type="highway.unclassified">
        <lane id="-142575690#2_0" index="0" speed="22.22" length="56.04" shape="4344.63,727.93 4301.08,716.99"/>
    </edge>
    <edge id="-142575690#3" from="607638014" to="283018932" priority="5" type="highway.unclassified">
        <lane id="-142575690#3_0" index="0" speed="22.22" length="5.08" shape="4351.02,729.48 4350.83,729.44"/>
    </edge>
    <edge id="-142575690#4" from="1568241558" to="607638014" priority="5" type="highway.unclassified">
        <lane id="-142575690#4_0" index="0" speed="22.22" length="36.07" shape="4384.95,737.16 4359.14,731.31"/>
    </edge>
    <edge id="-142575690#5" from="283018933" to="1568241558" priority="5" type="highway.unclassified" shape="4473.96,761.76 4437.82,747.87 4390.04,736.62">
        <lane id="-142575690#5_0" index="0" speed="22.22" length="87.80" shape="4470.28,762.11 4437.23,749.42 4394.17,739.29"/>
    </edge>
    <edge id="-142575690#6" from="1370020156" to="283018933" priority="5" type="highway.unclassified">
        <lane id="-142575690#6_0" index="0" speed="22.22" length="63.52" shape="4528.29,784.32 4476.26,764.40"/>
    </edge>
    <edge id="-142575690#7" from="1560224141" to="1370020156" priority="5" type="highway.unclassified">
        <lane id="-142575690#7_0" index="0" speed="22.22" length="24.51" shape="4552.39,793.27 4537.24,787.68"/>
    </edge>
    <edge id="-142575699#0" from="2007005081" to="1560223484" priority="4" type="highway.residential">
        <lane id="-142575699#0_0" index="0" speed="13.89" length="74.15" shape="4132.94,475.55 4137.38,414.85"/>
    </edge>
    <edge id="-142575699#1" from="1560223591" to="2007005081" priority="4" type="highway.residential">
        <lane id="-142575699#1_0" index="0" speed="13.89" length="44.08" shape="4129.73,519.35 4132.24,485.04"/>
    </edge>
    <edge id="-142575699#2" from="2007005091" to="1560223591" priority="4" type="highway.residential">
        <lane id="-142575699#2_0" index="0" speed="13.89" length="23.00" shape="4128.01,542.36 4129.03,528.82"/>
    </edge>
    <edge id="-142575699#3" from="cluster_1560223721_1560223744_851572267_851572547_851572934_851573004" to="2007005091" priority="4" type="highway.residential" shape="4125.32,600.05 4126.08,589.90 4129.31,547.11">
        <lane id="-142575699#3_0" index="0" speed="13.89" length="57.81" shape="4124.04,595.07 4124.44,589.77 4127.30,551.84"/>
    </edge>
    <edge id="-142575720#0" from="1599958758" to="1560224080" priority="2" type="highway.service">
        <lane id="-142575720#0_0" index="0" allow="delivery" speed="5.56" length="15.33" shape="4100.54,786.32 4106.19,786.92"/>
    </edge>
    <edge id="-142575720#3" from="1560223809" to="1599958758" priority="2" type="highway.service" shape="3977.72,643.34 3973.11,715.52 3969.48,776.73 4095.71,787.46">
        <lane id="-142575720#3_0" index="0" allow="delivery" speed="5.56" length="260.33" shape="3979.06,648.22 3974.75,715.63 3971.22,775.22 4091.11,785.41"/>
    </edge>
    <edge id="-142575725#0" from="1599958746" to="1560223834" priority="2" type="highway.service">
        <lane id="-142575725#0_0" index="0" allow="delivery" speed="5.56" length="14.57" shape="4112.06,651.74 4117.10,652.12"/>
    </edge>
    <edge id="-142575725#1" from="1560223809" to="1599958746" priority="2" type="highway.service">
        <lane id="-142575725#1_0" index="0" allow="delivery" speed="5.56" length="129.86" shape="3982.62,642.05 4102.58,651.03"/>
    </edge>
    <edge id="-142575725#2" from="1560223789" to="1560223809" priority="2" type="highway.service">
        <lane id="-142575725#2_0" index="0" allow="delivery" speed="5.56" length="47.85" shape="3935.30,635.93 3973.46,641.09"/>
    </edge>
    <edge id="-143308485" from="cluster_1568241274_735390335" to="1568241303" priority="4" type="highway.residential" shape="4211.33,217.40 4212.59,226.34 4217.97,277.94">
        <lane id="-143308485_0" index="0" speed="8.33" length="67.67" shape="4213.64,221.97 4214.23,226.11 4219.11,273.04"/>
    </edge>
    <edge id="-143308515" from="1568241285" to="cluster_1568241251_260702783" priority="4" type="highway.residential" shape="4325.55,266.84 4317.28,179.56">
        <lane id="-143308515_0" index="0" speed="8.33" length="92.89" shape="4323.46,262.24 4316.09,184.44"/>
    </edge>
    <edge id="-143308521#0" from="2177702825" to="1560224322" priority="5" type="highway.unclassified" shape="4127.61,914.20 4111.07,915.04 4101.65,917.10">
        <lane id="-143308521#0_0" index="0" speed="22.22" length="26.21" shape="4124.00,916.04 4111.16,916.69 4107.69,917.45"/>
    </edge>
    <edge id="-143308521#1" from="cluster_1568241686_2177702824" to="2177702825" priority="5" type="highway.unclassified" shape="4155.02,912.80 4127.61,914.20">
        <lane id="-143308521#1_0" index="0" speed="22.22" length="29.27" shape="4149.17,914.75 4133.99,915.53"/>
    </edge>
    <edge id="-143308521#10" from="664166125" to="1789928382" priority="5" type="highway.unclassified">
        <lane id="-143308521#10_0" index="0" speed="22.22" length="2.74" shape="4455.75,1005.17 4455.58,1005.06"/>
    </edge>
    <edge id="-143308521#3" from="664166095" to="cluster_1568241686_2177702824" priority="5" type="highway.unclassified" shape="4216.82,909.67 4188.50,911.11 4155.02,912.80">
        <lane id="-143308521#3_0" index="0" speed="22.22" length="63.69" shape="4212.56,911.54 4188.58,912.76 4159.98,914.21"/>
    </edge>
    <edge id="-143308521#4" from="1560224328" to="664166095" priority="5" type="highway.unclassified" shape="4283.56,917.92 4271.56,912.19 4267.15,910.08 4259.08,908.45 4216.82,909.67">
        <lane id="-143308521#4_0" index="0" speed="22.22" length="68.70" shape="4278.60,917.39 4270.85,913.68 4266.62,911.66 4258.94,910.11 4221.99,911.17"/>
    </edge>
    <edge id="-143308521#5" from="cluster_1560224356_1560224368" to="1560224328" priority="5" type="highway.unclassified" shape="4307.54,929.85 4283.56,917.92">
        <lane id="-143308521#5_0" index="0" speed="22.22" length="34.05" shape="4301.62,928.75 4287.07,921.52"/>
    </edge>
    <edge id="-143308521#7" from="1560224444" to="cluster_1560224356_1560224368" priority="5" type="highway.unclassified" shape="4383.59,967.40 4373.81,962.49 4320.77,935.85">
        <lane id="-143308521#7_0" index="0" speed="22.22" length="77.56" shape="4378.47,966.67 4373.07,963.97 4324.24,939.43"/>
    </edge>
    <edge id="-143308521#8" from="664166124" to="1560224444" priority="5" type="highway.unclassified" shape="4451.74,1000.51 4442.67,996.21 4422.78,986.46 4383.59,967.40">
        <lane id="-143308521#8_0" index="0" speed="22.22" length="75.77" shape="4448.49,1000.80 4441.97,997.71 4422.05,987.94 4387.04,970.91"/>
    </edge>
    <edge id="-143308521#9" from="1789928382" to="664166124" priority="5" type="highway.unclassified">
        <lane id="-143308521#9_0" index="0" speed="22.22" length="4.43" shape="4453.24,1003.51 4453.07,1003.40"/>
    </edge>
    <edge id="-143308560#0" from="56231598" to="cluster_56242441_945141732_945141877" priority="2" type="highway.service" shape="4548.13,674.69 4545.22,683.77">
        <lane id="-143308560#0_0" index="0" allow="delivery" speed="8.33" length="18.50" shape="4548.19,679.92 4547.75,681.28"/>
    </edge>
    <edge id="-143308562#0" from="607601672" to="664166095" priority="5" type="highway.unclassified">
        <lane id="-143308562#0_0" index="0" speed="22.22" length="67.87" shape="4223.60,846.95 4218.88,904.69"/>
    </edge>
    <edge id="-143308562#1" from="1472995250" to="607601672" priority="5" type="highway.unclassified">
        <lane id="-143308562#1_0" index="0" speed="22.22" length="18.50" shape="4225.73,826.74 4224.50,837.64"/>
    </edge>
    <edge id="-143308562#2" from="1560223943" to="1472995250" priority="5" type="highway.unclassified">
        <lane id="-143308562#2_0" index="0" speed="22.22" length="120.38" shape="4234.31,708.76 4226.29,820.63"/>
    </edge>
    <edge id="-143308562#3" from="cluster_1560223745_1568241351_1568241357_1568241362_1568241369_671564302" to="1560223943" priority="5" type="highway.unclassified" shape="4239.02,617.59 4233.03,703.59">
        <lane id="-143308562#3_0" index="0" speed="22.22" length="90.88" shape="4240.33,622.51 4235.03,698.54"/>
    </edge>
    <edge id="-143308562#5" from="1560223615" to="cluster_1560223745_1568241351_1568241357_1568241362_1568241369_671564302" priority="5" type="highway.unclassified" shape="4244.50,533.63 4239.66,608.29">
        <lane id="-143308562#5_0" index="0" speed="22.22" length="79.51" shape="4245.84,538.51 4241.62,603.59"/>
    </edge>
    <edge id="-143308566#0" from="cluster_1568241274_735390335" to="cluster_1568241251_260702783" priority="4" type="highway.residential" shape="4211.33,217.40 4306.98,181.26">
        <lane id="-143308566#0_0" index="0" speed="8.33" length="114.23" shape="4205.90,217.68 4302.49,181.19"/>
    </edge>
    <edge id="-143308566#2" from="260702781" to="cluster_1568241274_735390335" priority="4" type="highway.residential" shape="4175.43,228.25 4198.29,220.99">
        <lane id="-143308566#2_0" index="0" speed="8.33" length="30.75" shape="4176.36,226.22 4202.46,217.94"/>
    </edge>
    <edge id="-143308576" from="2007005037" to="280095054" priority="7" type="highway.secondary">
        <lane id="-143308576_0" index="0" speed="13.89" length="20.76" shape="4391.45,194.14 4389.83,180.35"/>
        <lane id="-143308576_1" index="1" speed="13.89" length="20.76" shape="4394.73,193.76 4393.11,179.97"/>
    </edge>
    <edge id="-143308600#0" from="1421174996" to="664166133" priority="2" type="highway.service">
        <lane id="-143308600#0_0" index="0" allow="delivery" speed="5.56" length="13.19" shape="4588.67,938.26 4596.33,944.89"/>
    </edge>
    <edge id="-143308600#1" from="269366969" to="1421174996" priority="2" type="highway.service">
        <lane id="-143308600#1_0" index="0" allow="delivery" speed="5.56" length="11.37" shape="4581.37,931.93 4583.99,934.20"/>
    </edge>
    <edge id="-143308600#2" from="1568241661" to="269366969" priority="2" type="highway.service">
        <lane id="-143308600#2_0" index="0" allow="delivery" speed="5.56" length="58.60" shape="4535.86,892.49 4574.19,925.71"/>
    </edge>
    <edge id="-143308600#3" from="1560224281" to="1568241661" priority="2" type="highway.service" shape="4522.31,884.04 4527.09,887.08 4532.40,891.68">
        <lane id="-143308600#3_0" index="0" allow="delivery" speed="5.56" length="12.69" shape="4526.13,884.51 4527.97,885.69 4531.17,888.44"/>
    </edge>
    <edge id="-143308601#0" from="1568241285" to="1568241281" priority="4" type="highway.residential">
        <lane id="-143308601#0_0" index="0" speed="8.33" length="58.17" shape="4330.13,264.71 4383.25,259.28"/>
    </edge>
    <edge id="-143308601#1" from="1568241303" to="1568241285" priority="4" type="highway.residential">
        <lane id="-143308601#1_0" index="0" speed="8.33" length="108.16" shape="4222.52,275.81 4320.68,265.68"/>
    </edge>
    <edge id="-143308601#2" from="260702833" to="1568241303" priority="4" type="highway.residential">
        <lane id="-143308601#2_0" index="0" speed="8.33" length="29.67" shape="4188.36,280.49 4213.15,276.96"/>
    </edge>
    <edge id="-143308618" from="1653119638" to="1568241247" priority="2" type="highway.service" shape="4311.73,137.35 4337.92,130.80 4341.51,150.66 4347.08,176.67">
        <lane id="-143308618_0" index="0" allow="delivery" speed="5.56" length="73.79" shape="4311.33,135.75 4339.23,128.77 4343.14,150.37 4347.62,171.30"/>
    </edge>
    <edge id="-143308626" from="1568241249" to="1568241230" priority="1" type="highway.track">
        <lane id="-143308626_0" index="0" speed="2.78" length="95.19" shape="4210.53,177.68 4296.44,150.96"/>
    </edge>
    <edge id="-143308628" from="1568241476" to="283018845" priority="2" type="highway.service">
        <lane id="-143308628_0" index="0" allow="delivery" speed="5.56" length="11.96" shape="4299.14,702.37 4297.95,709.51"/>
    </edge>
    <edge id="-143308673#0" from="1853142973" to="1568241232" priority="2" type="highway.service" shape="4469.43,188.80 4466.76,175.12 4460.99,161.71">
        <lane id="-143308673#0_0" index="0" allow="delivery" speed="2.78" length="28.54" shape="4467.19,185.94 4465.18,175.61 4461.37,166.77"/>
    </edge>
    <edge id="-143308673#1" from="1653119660" to="1853142973" priority="2" type="highway.service" shape="4514.26,243.92 4502.41,261.97 4484.41,265.69 4469.43,188.80">
        <lane id="-143308673#1_0" index="0" allow="delivery" speed="2.78" length="118.31" shape="4513.35,248.31 4503.42,263.44 4483.11,267.65 4468.38,192.03"/>
    </edge>
    <edge id="-143308685#0" from="1568241546" to="1568241558" priority="2" type="highway.service" shape="4392.68,722.97 4391.82,727.51 4390.04,736.62">
        <lane id="-143308685#0_0" index="0" allow="delivery" speed="5.56" length="13.90" shape="4393.43,727.86 4392.59,732.17"/>
    </edge>