<?xml version="1.0" encoding="UTF-8"?>

<!-- generated on 06/18/14 14:21:41 by SUMO jtrrouter Version dev-SVN-r16607
<?xml version="1.0" encoding="UTF-8"?>

<configuration xmlns:xsi="http://www.w3.org/2001/XMLSchema-instance" xsi:noNamespaceSchemaLocation="http://sumo-sim.org/xsd/jtrrouterConfiguration.xsd">

    <input>
        <net-file value="input_net.net.xml"/>
        <flow-files value="input_flows.flows.xml"/>
    </input>

    <output>
        <output-file value="routes.rou.xml"/>
    </output>

    <report>
        <xml-validation value="never"/>
        <no-step-log value="true"/>
    </report>

</configuration>
-->

<routes xmlns:xsi="http://www.w3.org/2001/XMLSchema-instance" xsi:noNamespaceSchemaLocation="http://sumo-sim.org/xsd/routes_file.xsd">
    <vehicle id="0.0" depart="0.00">
        <route edges="beg -beg"/>
    </vehicle>
</routes>
