<routes>
    <vType id="fast" speedFactor="1"/>
    <vType id="slow" speedFactor="0.5"/>
    <vehicle id="v0" depart="0" departLane="0" arrivalLane="0">
        <route edges="1si"/>
        <stop lane="1si_0" endPos="150" duration="1000"/>
    </vehicle>
    <vehicle id="v1" depart="1" departPos="0" departLane="0" arrivalLane="1">
        <route edges="1si"/>
    </vehicle>
</routes>
