<routes xmlns:xsi="http://www.w3.org/2001/XMLSchema-instance" xsi:noNamespaceSchemaLocation="http://sumo.dlr.de/xsd/routes_file.xsd">
    <route id="blub" edges="beg"/>
    <vehicle id="0" depart="0" departPos="0" arrivalPos="-1" route="blub"/>
</routes>
